*SPEF "ieee 1481-1999"
*DESIGN "async_fifo"
*DATE "07:28:44 Friday August 29, 2025"
*VENDOR "The OpenROAD Project"
*PROGRAM "OpenROAD"
*VERSION "b16bda7e82721d10566ff7e2b68f1ff0be9f9e38"
*DESIGN_FLOW "NAME_SCOPE LOCAL" "PIN_CAP NONE"
*DIVIDER /
*DELIMITER :
*BUS_DELIMITER []
*T_UNIT 1 NS
*C_UNIT 1 PF
*R_UNIT 1 OHM
*L_UNIT 1 HENRY

*NAME_MAP
*3 rd_clk
*4 rd_data[0]
*5 rd_data[1]
*6 rd_data[2]
*7 rd_data[3]
*8 rd_data[4]
*9 rd_data[5]
*10 rd_data[6]
*11 rd_data[7]
*12 rd_empty
*13 rd_en
*14 rd_rst
*15 wr_clk
*16 wr_data[0]
*17 wr_data[1]
*18 wr_data[2]
*19 wr_data[3]
*20 wr_data[4]
*21 wr_data[5]
*22 wr_data[6]
*23 wr_data[7]
*24 wr_en
*25 wr_full
*26 wr_rst
*27 _0000_
*28 _0001_
*29 _0002_
*30 _0003_
*31 _0004_
*32 _0005_
*33 _0006_
*34 _0007_
*35 _0008_
*36 _0009_
*37 _0010_
*38 _0011_
*39 _0012_
*40 _0013_
*41 _0014_
*42 _0015_
*43 _0016_
*44 _0017_
*45 _0018_
*46 _0019_
*47 _0020_
*48 _0021_
*49 _0022_
*50 _0023_
*51 _0024_
*52 _0025_
*53 _0026_
*54 _0027_
*55 _0028_
*56 _0029_
*57 _0030_
*58 _0031_
*59 _0032_
*60 _0033_
*61 _0034_
*62 _0035_
*63 _0036_
*64 _0037_
*65 _0038_
*66 _0039_
*67 _0040_
*68 _0041_
*69 _0042_
*70 _0043_
*71 _0044_
*72 _0045_
*73 _0046_
*74 _0047_
*75 _0048_
*76 _0049_
*77 _0050_
*78 _0051_
*79 _0052_
*80 _0053_
*81 _0054_
*82 _0055_
*83 _0056_
*84 _0057_
*85 _0058_
*86 _0059_
*87 _0060_
*88 _0061_
*89 _0062_
*90 _0063_
*91 _0064_
*92 _0065_
*93 _0066_
*94 _0067_
*95 _0068_
*96 _0069_
*97 _0070_
*98 _0071_
*99 _0072_
*100 _0073_
*101 _0074_
*102 _0075_
*103 _0076_
*104 _0077_
*105 _0078_
*106 _0079_
*107 _0080_
*108 _0081_
*109 _0082_
*110 _0083_
*111 _0084_
*112 _0085_
*113 _0086_
*114 _0087_
*115 _0088_
*116 _0089_
*117 _0090_
*118 _0091_
*119 _0092_
*120 _0093_
*121 _0094_
*122 _0095_
*123 _0096_
*124 _0097_
*125 _0098_
*126 _0099_
*127 _0100_
*128 _0101_
*129 _0102_
*130 _0103_
*131 _0104_
*132 _0105_
*133 _0106_
*134 _0107_
*135 _0108_
*136 _0109_
*137 _0110_
*138 _0111_
*139 _0112_
*140 _0113_
*141 _0114_
*142 _0115_
*143 _0116_
*144 _0117_
*145 _0118_
*146 _0119_
*147 _0120_
*148 _0121_
*149 _0122_
*150 _0123_
*151 _0124_
*152 _0125_
*153 _0126_
*154 _0127_
*155 _0128_
*156 _0129_
*157 _0130_
*158 _0131_
*159 _0132_
*160 _0133_
*161 _0134_
*162 _0135_
*163 _0136_
*164 _0137_
*165 _0138_
*166 _0139_
*167 _0140_
*168 _0141_
*169 _0142_
*170 _0143_
*171 _0144_
*172 _0145_
*173 _0146_
*174 _0147_
*175 _0148_
*176 _0149_
*177 _0150_
*178 _0151_
*179 _0152_
*180 _0153_
*181 _0154_
*182 _0155_
*183 _0156_
*184 _0157_
*185 _0158_
*186 _0159_
*187 _0160_
*188 _0161_
*189 _0162_
*190 _0163_
*191 _0164_
*192 _0165_
*193 _0166_
*194 _0167_
*195 _0168_
*196 _0169_
*197 _0170_
*198 _0171_
*199 _0172_
*200 _0173_
*201 _0174_
*202 _0175_
*203 _0176_
*204 _0177_
*205 _0178_
*206 _0179_
*207 _0180_
*208 _0181_
*209 _0182_
*210 _0183_
*211 _0184_
*212 _0185_
*213 _0186_
*214 _0187_
*215 _0188_
*216 _0189_
*217 _0190_
*218 _0191_
*219 _0192_
*220 _0193_
*221 _0194_
*222 _0195_
*223 _0196_
*224 _0197_
*225 _0198_
*226 _0199_
*227 _0200_
*228 _0201_
*229 _0202_
*230 _0203_
*231 _0204_
*232 _0205_
*233 _0206_
*234 _0207_
*235 _0208_
*236 _0209_
*237 _0210_
*238 _0211_
*239 _0212_
*240 _0213_
*241 _0214_
*242 _0215_
*243 _0216_
*244 _0217_
*245 _0218_
*246 _0219_
*247 _0220_
*248 _0221_
*249 _0222_
*250 _0223_
*251 _0224_
*252 _0225_
*253 _0226_
*254 _0227_
*255 _0228_
*256 _0229_
*257 _0230_
*258 _0231_
*259 _0232_
*260 _0233_
*261 _0234_
*262 _0235_
*263 _0236_
*264 _0237_
*265 _0238_
*266 _0239_
*267 _0240_
*268 _0241_
*269 _0242_
*270 _0243_
*271 _0244_
*272 _0245_
*273 _0246_
*274 _0247_
*275 _0248_
*276 _0249_
*277 _0250_
*278 _0251_
*279 _0252_
*280 _0253_
*281 _0254_
*282 _0255_
*283 _0256_
*284 _0257_
*285 _0258_
*286 _0259_
*287 _0260_
*288 _0261_
*289 _0262_
*290 _0263_
*291 _0264_
*292 _0265_
*293 _0266_
*294 _0267_
*295 _0268_
*296 _0269_
*297 _0270_
*298 _0271_
*299 _0272_
*300 _0273_
*301 _0274_
*302 _0275_
*303 _0276_
*304 _0277_
*305 _0278_
*306 _0279_
*307 _0280_
*308 _0281_
*309 _0282_
*310 _0283_
*311 _0284_
*312 _0285_
*313 _0286_
*314 _0287_
*315 _0288_
*316 _0289_
*317 _0290_
*318 _0291_
*319 _0292_
*320 _0293_
*321 _0294_
*322 _0295_
*323 _0296_
*324 _0297_
*325 _0298_
*326 _0299_
*327 _0300_
*328 _0301_
*329 _0302_
*330 _0303_
*331 _0304_
*332 _0305_
*333 _0306_
*334 _0307_
*335 _0308_
*336 _0309_
*337 _0310_
*338 _0311_
*339 _0312_
*340 _0313_
*341 _0314_
*342 _0315_
*343 _0316_
*344 _0317_
*345 _0318_
*346 _0319_
*347 _0320_
*348 _0321_
*349 _0322_
*350 _0323_
*351 _0324_
*352 _0325_
*353 _0326_
*354 _0327_
*355 _0328_
*356 _0329_
*357 _0330_
*358 _0331_
*359 _0332_
*360 _0333_
*361 _0334_
*362 _0335_
*363 _0336_
*364 _0337_
*365 _0338_
*366 _0339_
*367 _0340_
*368 _0341_
*369 _0342_
*370 _0343_
*371 _0344_
*372 _0345_
*373 _0346_
*374 _0347_
*375 _0348_
*376 _0349_
*377 _0350_
*378 _0351_
*379 _0352_
*380 _0353_
*381 _0354_
*382 _0355_
*383 _0356_
*384 _0357_
*385 _0358_
*386 _0359_
*387 _0360_
*388 _0361_
*389 _0362_
*390 _0363_
*391 _0364_
*392 _0365_
*393 _0366_
*394 _0367_
*395 _0368_
*396 _0369_
*397 _0370_
*398 _0371_
*399 _0372_
*400 _0373_
*401 _0374_
*402 _0375_
*403 _0376_
*404 _0377_
*405 _0378_
*406 _0379_
*407 _0380_
*408 _0381_
*409 _0382_
*410 _0383_
*411 _0384_
*412 _0385_
*413 _0386_
*414 _0387_
*415 _0388_
*416 _0389_
*417 _0390_
*418 _0391_
*419 _0392_
*420 _0393_
*421 _0394_
*422 _0395_
*423 _0396_
*424 _0397_
*425 _0398_
*426 _0399_
*427 _0400_
*428 _0401_
*429 _0402_
*430 _0403_
*431 _0404_
*432 _0405_
*433 _0406_
*434 _0407_
*435 _0408_
*436 _0409_
*437 _0410_
*438 _0411_
*439 _0412_
*440 _0413_
*441 _0414_
*442 _0415_
*443 _0416_
*444 _0417_
*445 _0418_
*446 _0419_
*447 _0420_
*448 _0421_
*449 _0422_
*450 _0423_
*451 _0424_
*452 _0425_
*453 _0426_
*454 _0427_
*455 _0428_
*456 _0429_
*457 _0430_
*458 _0431_
*459 _0432_
*460 _0433_
*461 _0434_
*462 _0435_
*463 _0436_
*464 _0437_
*465 _0438_
*466 _0439_
*467 _0440_
*468 _0441_
*469 _0442_
*470 _0443_
*471 _0444_
*472 _0445_
*473 _0446_
*474 _0447_
*475 _0448_
*476 _0449_
*477 _0450_
*478 _0451_
*479 _0452_
*480 _0453_
*481 _0454_
*482 _0455_
*483 _0456_
*484 _0457_
*485 _0458_
*486 _0459_
*487 _0460_
*488 _0461_
*489 _0462_
*490 _0463_
*491 _0464_
*492 _0465_
*493 _0466_
*494 _0467_
*495 _0468_
*496 _0469_
*497 _0470_
*498 _0471_
*499 _0472_
*500 _0473_
*501 _0474_
*502 _0475_
*503 _0476_
*504 _0477_
*505 _0478_
*506 _0479_
*507 _0480_
*508 _0481_
*509 _0482_
*510 _0483_
*511 _0484_
*512 _0485_
*513 _0486_
*514 _0487_
*515 _0488_
*516 _0489_
*517 _0490_
*518 _0491_
*519 _0492_
*520 _0493_
*521 _0494_
*522 _0495_
*523 _0496_
*524 _0497_
*525 _0498_
*526 _0499_
*527 _0500_
*528 _0501_
*529 _0502_
*530 _0503_
*531 _0504_
*532 _0505_
*533 _0506_
*534 _0507_
*535 _0508_
*536 _0509_
*537 _0510_
*538 _0511_
*539 _0512_
*540 _0513_
*541 _0514_
*542 _0515_
*543 _0516_
*544 _0517_
*545 _0518_
*546 _0519_
*547 _0520_
*548 _0521_
*549 _0522_
*550 _0523_
*551 _0524_
*552 _0525_
*553 _0526_
*554 _0527_
*555 _0528_
*556 _0529_
*557 _0530_
*558 _0531_
*559 _0532_
*560 _0533_
*561 _0534_
*562 _0535_
*563 _0536_
*564 _0537_
*565 _0538_
*566 _0539_
*567 _0540_
*568 _0541_
*569 _0542_
*570 _0543_
*571 _0544_
*572 _0545_
*573 _0546_
*574 clknet_0_rd_clk
*575 clknet_0_wr_clk
*576 clknet_1_0__leaf_rd_clk
*577 clknet_1_1__leaf_rd_clk
*578 clknet_4_0_0_wr_clk
*579 clknet_4_10_0_wr_clk
*580 clknet_4_11_0_wr_clk
*581 clknet_4_12_0_wr_clk
*582 clknet_4_13_0_wr_clk
*583 clknet_4_14_0_wr_clk
*584 clknet_4_15_0_wr_clk
*585 clknet_4_1_0_wr_clk
*586 clknet_4_2_0_wr_clk
*587 clknet_4_3_0_wr_clk
*588 clknet_4_4_0_wr_clk
*589 clknet_4_5_0_wr_clk
*590 clknet_4_6_0_wr_clk
*591 clknet_4_7_0_wr_clk
*592 clknet_4_8_0_wr_clk
*593 clknet_4_9_0_wr_clk
*594 mem\[0\]\[0\]
*595 mem\[0\]\[1\]
*596 mem\[0\]\[2\]
*597 mem\[0\]\[3\]
*598 mem\[0\]\[4\]
*599 mem\[0\]\[5\]
*600 mem\[0\]\[6\]
*601 mem\[0\]\[7\]
*602 mem\[10\]\[0\]
*603 mem\[10\]\[1\]
*604 mem\[10\]\[2\]
*605 mem\[10\]\[3\]
*606 mem\[10\]\[4\]
*607 mem\[10\]\[5\]
*608 mem\[10\]\[6\]
*609 mem\[10\]\[7\]
*610 mem\[11\]\[0\]
*611 mem\[11\]\[1\]
*612 mem\[11\]\[2\]
*613 mem\[11\]\[3\]
*614 mem\[11\]\[4\]
*615 mem\[11\]\[5\]
*616 mem\[11\]\[6\]
*617 mem\[11\]\[7\]
*618 mem\[12\]\[0\]
*619 mem\[12\]\[1\]
*620 mem\[12\]\[2\]
*621 mem\[12\]\[3\]
*622 mem\[12\]\[4\]
*623 mem\[12\]\[5\]
*624 mem\[12\]\[6\]
*625 mem\[12\]\[7\]
*626 mem\[13\]\[0\]
*627 mem\[13\]\[1\]
*628 mem\[13\]\[2\]
*629 mem\[13\]\[3\]
*630 mem\[13\]\[4\]
*631 mem\[13\]\[5\]
*632 mem\[13\]\[6\]
*633 mem\[13\]\[7\]
*634 mem\[14\]\[0\]
*635 mem\[14\]\[1\]
*636 mem\[14\]\[2\]
*637 mem\[14\]\[3\]
*638 mem\[14\]\[4\]
*639 mem\[14\]\[5\]
*640 mem\[14\]\[6\]
*641 mem\[14\]\[7\]
*642 mem\[15\]\[0\]
*643 mem\[15\]\[1\]
*644 mem\[15\]\[2\]
*645 mem\[15\]\[3\]
*646 mem\[15\]\[4\]
*647 mem\[15\]\[5\]
*648 mem\[15\]\[6\]
*649 mem\[15\]\[7\]
*650 mem\[1\]\[0\]
*651 mem\[1\]\[1\]
*652 mem\[1\]\[2\]
*653 mem\[1\]\[3\]
*654 mem\[1\]\[4\]
*655 mem\[1\]\[5\]
*656 mem\[1\]\[6\]
*657 mem\[1\]\[7\]
*658 mem\[2\]\[0\]
*659 mem\[2\]\[1\]
*660 mem\[2\]\[2\]
*661 mem\[2\]\[3\]
*662 mem\[2\]\[4\]
*663 mem\[2\]\[5\]
*664 mem\[2\]\[6\]
*665 mem\[2\]\[7\]
*666 mem\[3\]\[0\]
*667 mem\[3\]\[1\]
*668 mem\[3\]\[2\]
*669 mem\[3\]\[3\]
*670 mem\[3\]\[4\]
*671 mem\[3\]\[5\]
*672 mem\[3\]\[6\]
*673 mem\[3\]\[7\]
*674 mem\[4\]\[0\]
*675 mem\[4\]\[1\]
*676 mem\[4\]\[2\]
*677 mem\[4\]\[3\]
*678 mem\[4\]\[4\]
*679 mem\[4\]\[5\]
*680 mem\[4\]\[6\]
*681 mem\[4\]\[7\]
*682 mem\[5\]\[0\]
*683 mem\[5\]\[1\]
*684 mem\[5\]\[2\]
*685 mem\[5\]\[3\]
*686 mem\[5\]\[4\]
*687 mem\[5\]\[5\]
*688 mem\[5\]\[6\]
*689 mem\[5\]\[7\]
*690 mem\[6\]\[0\]
*691 mem\[6\]\[1\]
*692 mem\[6\]\[2\]
*693 mem\[6\]\[3\]
*694 mem\[6\]\[4\]
*695 mem\[6\]\[5\]
*696 mem\[6\]\[6\]
*697 mem\[6\]\[7\]
*698 mem\[7\]\[0\]
*699 mem\[7\]\[1\]
*700 mem\[7\]\[2\]
*701 mem\[7\]\[3\]
*702 mem\[7\]\[4\]
*703 mem\[7\]\[5\]
*704 mem\[7\]\[6\]
*705 mem\[7\]\[7\]
*706 mem\[8\]\[0\]
*707 mem\[8\]\[1\]
*708 mem\[8\]\[2\]
*709 mem\[8\]\[3\]
*710 mem\[8\]\[4\]
*711 mem\[8\]\[5\]
*712 mem\[8\]\[6\]
*713 mem\[8\]\[7\]
*714 mem\[9\]\[0\]
*715 mem\[9\]\[1\]
*716 mem\[9\]\[2\]
*717 mem\[9\]\[3\]
*718 mem\[9\]\[4\]
*719 mem\[9\]\[5\]
*720 mem\[9\]\[6\]
*721 mem\[9\]\[7\]
*722 net1
*723 net10
*724 net11
*725 net12
*726 net13
*727 net14
*728 net15
*729 net16
*730 net17
*731 net18
*732 net19
*733 net2
*734 net20
*735 net21
*736 net22
*737 net23
*738 net24
*739 net25
*740 net26
*741 net27
*742 net28
*743 net29
*744 net3
*745 net4
*746 net5
*747 net6
*748 net7
*749 net8
*750 net9
*751 rd_ptr\[0\]
*752 rd_ptr\[1\]
*753 rd_ptr\[2\]
*754 rd_ptr\[3\]
*755 rd_ptr\[4\]
*756 rd_ptr_gray\[0\]
*757 rd_ptr_gray\[1\]
*758 rd_ptr_gray\[2\]
*759 rd_ptr_gray\[3\]
*760 rd_ptr_gray_sync1\[0\]
*761 rd_ptr_gray_sync1\[1\]
*762 rd_ptr_gray_sync1\[2\]
*763 rd_ptr_gray_sync1\[3\]
*764 rd_ptr_gray_sync1\[4\]
*765 rd_ptr_gray_sync2\[0\]
*766 rd_ptr_gray_sync2\[1\]
*767 rd_ptr_gray_sync2\[2\]
*768 rd_ptr_gray_sync2\[3\]
*769 rd_ptr_gray_sync2\[4\]
*770 wr_ptr\[0\]
*771 wr_ptr\[1\]
*772 wr_ptr\[2\]
*773 wr_ptr\[3\]
*774 wr_ptr\[4\]
*775 wr_ptr_gray\[0\]
*776 wr_ptr_gray\[1\]
*777 wr_ptr_gray\[2\]
*778 wr_ptr_gray\[3\]
*779 wr_ptr_gray_sync1\[0\]
*780 wr_ptr_gray_sync1\[1\]
*781 wr_ptr_gray_sync1\[2\]
*782 wr_ptr_gray_sync1\[3\]
*783 wr_ptr_gray_sync1\[4\]
*784 wr_ptr_gray_sync2\[0\]
*785 wr_ptr_gray_sync2\[1\]
*786 wr_ptr_gray_sync2\[2\]
*787 wr_ptr_gray_sync2\[3\]
*788 wr_ptr_gray_sync2\[4\]
*789 ANTENNA_1
*790 FILLER_0_0_107
*791 FILLER_0_0_111
*792 FILLER_0_0_113
*793 FILLER_0_0_139
*794 FILLER_0_0_141
*795 FILLER_0_0_15
*796 FILLER_0_0_153
*797 FILLER_0_0_161
*798 FILLER_0_0_177
*799 FILLER_0_0_189
*800 FILLER_0_0_195
*801 FILLER_0_0_197
*802 FILLER_0_0_209
*803 FILLER_0_0_221
*804 FILLER_0_0_225
*805 FILLER_0_0_237
*806 FILLER_0_0_249
*807 FILLER_0_0_253
*808 FILLER_0_0_265
*809 FILLER_0_0_27
*810 FILLER_0_0_29
*811 FILLER_0_0_3
*812 FILLER_0_0_41
*813 FILLER_0_0_49
*814 FILLER_0_0_65
*815 FILLER_0_0_73
*816 FILLER_0_0_95
*817 FILLER_0_10_138
*818 FILLER_0_10_15
*819 FILLER_0_10_181
*820 FILLER_0_10_193
*821 FILLER_0_10_247
*822 FILLER_0_10_251
*823 FILLER_0_10_253
*824 FILLER_0_10_27
*825 FILLER_0_10_29
*826 FILLER_0_10_3
*827 FILLER_0_10_41
*828 FILLER_0_10_53
*829 FILLER_0_10_77
*830 FILLER_0_10_83
*831 FILLER_0_10_85
*832 FILLER_0_11_109
*833 FILLER_0_11_113
*834 FILLER_0_11_15
*835 FILLER_0_11_160
*836 FILLER_0_11_169
*837 FILLER_0_11_173
*838 FILLER_0_11_183
*839 FILLER_0_11_220
*840 FILLER_0_11_237
*841 FILLER_0_11_246
*842 FILLER_0_11_258
*843 FILLER_0_11_27
*844 FILLER_0_11_270
*845 FILLER_0_11_276
*846 FILLER_0_11_3
*847 FILLER_0_11_39
*848 FILLER_0_11_55
*849 FILLER_0_11_57
*850 FILLER_0_11_68
*851 FILLER_0_11_80
*852 FILLER_0_12_113
*853 FILLER_0_12_125
*854 FILLER_0_12_136
*855 FILLER_0_12_141
*856 FILLER_0_12_152
*857 FILLER_0_12_164
*858 FILLER_0_12_188
*859 FILLER_0_12_197
*860 FILLER_0_12_209
*861 FILLER_0_12_224
*862 FILLER_0_12_23
*863 FILLER_0_12_232
*864 FILLER_0_12_236
*865 FILLER_0_12_270
*866 FILLER_0_12_276
*867 FILLER_0_12_3
*868 FILLER_0_12_51
*869 FILLER_0_12_68
*870 FILLER_0_12_80
*871 FILLER_0_12_85
*872 FILLER_0_13_111
*873 FILLER_0_13_113
*874 FILLER_0_13_125
*875 FILLER_0_13_137
*876 FILLER_0_13_148
*877 FILLER_0_13_166
*878 FILLER_0_13_169
*879 FILLER_0_13_173
*880 FILLER_0_13_193
*881 FILLER_0_13_205
*882 FILLER_0_13_217
*883 FILLER_0_13_228
*884 FILLER_0_13_234
*885 FILLER_0_13_242
*886 FILLER_0_13_25
*887 FILLER_0_13_269
*888 FILLER_0_13_3
*889 FILLER_0_13_82
*890 FILLER_0_14_105
*891 FILLER_0_14_113
*892 FILLER_0_14_138
*893 FILLER_0_14_148
*894 FILLER_0_14_179
*895 FILLER_0_14_197
*896 FILLER_0_14_209
*897 FILLER_0_14_244
*898 FILLER_0_14_253
*899 FILLER_0_14_257
*900 FILLER_0_14_266
*901 FILLER_0_14_41
*902 FILLER_0_14_69
*903 FILLER_0_14_7
*904 FILLER_0_14_73
*905 FILLER_0_14_83
*906 FILLER_0_14_85
*907 FILLER_0_15_105
*908 FILLER_0_15_11
*909 FILLER_0_15_111
*910 FILLER_0_15_113
*911 FILLER_0_15_148
*912 FILLER_0_15_166
*913 FILLER_0_15_169
*914 FILLER_0_15_181
*915 FILLER_0_15_201
*916 FILLER_0_15_225
*917 FILLER_0_15_23
*918 FILLER_0_15_237
*919 FILLER_0_15_249
*920 FILLER_0_15_257
*921 FILLER_0_15_267
*922 FILLER_0_15_275
*923 FILLER_0_15_36
*924 FILLER_0_15_40
*925 FILLER_0_15_49
*926 FILLER_0_15_55
*927 FILLER_0_15_57
*928 FILLER_0_15_68
*929 FILLER_0_15_86
*930 FILLER_0_15_90
*931 FILLER_0_16_105
*932 FILLER_0_16_117
*933 FILLER_0_16_131
*934 FILLER_0_16_139
*935 FILLER_0_16_14
*936 FILLER_0_16_141
*937 FILLER_0_16_165
*938 FILLER_0_16_177
*939 FILLER_0_16_183
*940 FILLER_0_16_197
*941 FILLER_0_16_209
*942 FILLER_0_16_213
*943 FILLER_0_16_226
*944 FILLER_0_16_238
*945 FILLER_0_16_250
*946 FILLER_0_16_26
*947 FILLER_0_16_273
*948 FILLER_0_16_29
*949 FILLER_0_16_3
*950 FILLER_0_16_41
*951 FILLER_0_16_53
*952 FILLER_0_16_65
*953 FILLER_0_16_76
*954 FILLER_0_16_85
*955 FILLER_0_16_93
*956 FILLER_0_17_108
*957 FILLER_0_17_113
*958 FILLER_0_17_125
*959 FILLER_0_17_137
*960 FILLER_0_17_144
*961 FILLER_0_17_156
*962 FILLER_0_17_169
*963 FILLER_0_17_181
*964 FILLER_0_17_193
*965 FILLER_0_17_201
*966 FILLER_0_17_225
*967 FILLER_0_17_236
*968 FILLER_0_17_268
*969 FILLER_0_17_276
*970 FILLER_0_17_3
*971 FILLER_0_17_30
*972 FILLER_0_17_41
*973 FILLER_0_17_47
*974 FILLER_0_17_53
*975 FILLER_0_17_60
*976 FILLER_0_17_72
*977 FILLER_0_17_84
*978 FILLER_0_17_93
*979 FILLER_0_18_111
*980 FILLER_0_18_123
*981 FILLER_0_18_129
*982 FILLER_0_18_139
*983 FILLER_0_18_141
*984 FILLER_0_18_153
*985 FILLER_0_18_165
*986 FILLER_0_18_177
*987 FILLER_0_18_189
*988 FILLER_0_18_195
*989 FILLER_0_18_197
*990 FILLER_0_18_209
*991 FILLER_0_18_238
*992 FILLER_0_18_24
*993 FILLER_0_18_249
*994 FILLER_0_18_262
*995 FILLER_0_18_269
*996 FILLER_0_18_3
*997 FILLER_0_18_49
*998 FILLER_0_18_69
*999 FILLER_0_18_7
*1000 FILLER_0_18_85
*1001 FILLER_0_19_11
*1002 FILLER_0_19_122
*1003 FILLER_0_19_141
*1004 FILLER_0_19_153
*1005 FILLER_0_19_165
*1006 FILLER_0_19_206
*1007 FILLER_0_19_218
*1008 FILLER_0_19_228
*1009 FILLER_0_19_240
*1010 FILLER_0_19_252
*1011 FILLER_0_19_275
*1012 FILLER_0_1_104
*1013 FILLER_0_1_113
*1014 FILLER_0_1_142
*1015 FILLER_0_1_15
*1016 FILLER_0_1_154
*1017 FILLER_0_1_158
*1018 FILLER_0_1_162
*1019 FILLER_0_1_166
*1020 FILLER_0_1_169
*1021 FILLER_0_1_189
*1022 FILLER_0_1_201
*1023 FILLER_0_1_213
*1024 FILLER_0_1_221
*1025 FILLER_0_1_225
*1026 FILLER_0_1_231
*1027 FILLER_0_1_235
*1028 FILLER_0_1_259
*1029 FILLER_0_1_27
*1030 FILLER_0_1_271
*1031 FILLER_0_1_3
*1032 FILLER_0_1_78
*1033 FILLER_0_1_86
*1034 FILLER_0_20_110
*1035 FILLER_0_20_128
*1036 FILLER_0_20_13
*1037 FILLER_0_20_133
*1038 FILLER_0_20_139
*1039 FILLER_0_20_157
*1040 FILLER_0_20_162
*1041 FILLER_0_20_166
*1042 FILLER_0_20_21
*1043 FILLER_0_20_213
*1044 FILLER_0_20_225
*1045 FILLER_0_20_240
*1046 FILLER_0_20_253
*1047 FILLER_0_20_27
*1048 FILLER_0_20_46
*1049 FILLER_0_20_58
*1050 FILLER_0_20_68
*1051 FILLER_0_20_80
*1052 FILLER_0_20_85
*1053 FILLER_0_20_96
*1054 FILLER_0_21_108
*1055 FILLER_0_21_123
*1056 FILLER_0_21_131
*1057 FILLER_0_21_15
*1058 FILLER_0_21_187
*1059 FILLER_0_21_213
*1060 FILLER_0_21_221
*1061 FILLER_0_21_225
*1062 FILLER_0_21_247
*1063 FILLER_0_21_27
*1064 FILLER_0_21_273
*1065 FILLER_0_21_3
*1066 FILLER_0_21_39
*1067 FILLER_0_21_51
*1068 FILLER_0_21_55
*1069 FILLER_0_21_57
*1070 FILLER_0_21_69
*1071 FILLER_0_21_81
*1072 FILLER_0_21_93
*1073 FILLER_0_22_107
*1074 FILLER_0_22_119
*1075 FILLER_0_22_131
*1076 FILLER_0_22_139
*1077 FILLER_0_22_141
*1078 FILLER_0_22_15
*1079 FILLER_0_22_162
*1080 FILLER_0_22_171
*1081 FILLER_0_22_183
*1082 FILLER_0_22_195
*1083 FILLER_0_22_201
*1084 FILLER_0_22_213
*1085 FILLER_0_22_217
*1086 FILLER_0_22_241
*1087 FILLER_0_22_249
*1088 FILLER_0_22_26
*1089 FILLER_0_22_29
*1090 FILLER_0_22_3
*1091 FILLER_0_22_41
*1092 FILLER_0_22_53
*1093 FILLER_0_22_65
*1094 FILLER_0_22_77
*1095 FILLER_0_22_83
*1096 FILLER_0_22_85
*1097 FILLER_0_22_95
*1098 FILLER_0_23_103
*1099 FILLER_0_23_111
*1100 FILLER_0_23_113
*1101 FILLER_0_23_125
*1102 FILLER_0_23_137
*1103 FILLER_0_23_14
*1104 FILLER_0_23_160
*1105 FILLER_0_23_169
*1106 FILLER_0_23_18
*1107 FILLER_0_23_181
*1108 FILLER_0_23_193
*1109 FILLER_0_23_206
*1110 FILLER_0_23_218
*1111 FILLER_0_23_245
*1112 FILLER_0_23_257
*1113 FILLER_0_23_263
*1114 FILLER_0_23_267
*1115 FILLER_0_23_3
*1116 FILLER_0_23_44
*1117 FILLER_0_23_55
*1118 FILLER_0_23_66
*1119 FILLER_0_24_108
*1120 FILLER_0_24_11
*1121 FILLER_0_24_116
*1122 FILLER_0_24_133
*1123 FILLER_0_24_139
*1124 FILLER_0_24_141
*1125 FILLER_0_24_158
*1126 FILLER_0_24_170
*1127 FILLER_0_24_182
*1128 FILLER_0_24_195
*1129 FILLER_0_24_197
*1130 FILLER_0_24_214
*1131 FILLER_0_24_220
*1132 FILLER_0_24_230
*1133 FILLER_0_24_239
*1134 FILLER_0_24_251
*1135 FILLER_0_24_276
*1136 FILLER_0_24_3
*1137 FILLER_0_24_45
*1138 FILLER_0_24_80
*1139 FILLER_0_25_108
*1140 FILLER_0_25_113
*1141 FILLER_0_25_140
*1142 FILLER_0_25_164
*1143 FILLER_0_25_177
*1144 FILLER_0_25_181
*1145 FILLER_0_25_206
*1146 FILLER_0_25_214
*1147 FILLER_0_25_239
*1148 FILLER_0_25_251
*1149 FILLER_0_25_263
*1150 FILLER_0_25_3
*1151 FILLER_0_25_32
*1152 FILLER_0_25_44
*1153 FILLER_0_25_55
*1154 FILLER_0_25_80
*1155 FILLER_0_25_98
*1156 FILLER_0_26_109
*1157 FILLER_0_26_11
*1158 FILLER_0_26_139
*1159 FILLER_0_26_141
*1160 FILLER_0_26_15
*1161 FILLER_0_26_179
*1162 FILLER_0_26_212
*1163 FILLER_0_26_244
*1164 FILLER_0_26_253
*1165 FILLER_0_26_265
*1166 FILLER_0_26_27
*1167 FILLER_0_26_29
*1168 FILLER_0_26_3
*1169 FILLER_0_26_33
*1170 FILLER_0_26_42
*1171 FILLER_0_26_54
*1172 FILLER_0_26_72
*1173 FILLER_0_26_85
*1174 FILLER_0_27_103
*1175 FILLER_0_27_111
*1176 FILLER_0_27_113
*1177 FILLER_0_27_119
*1178 FILLER_0_27_136
*1179 FILLER_0_27_142
*1180 FILLER_0_27_166
*1181 FILLER_0_27_169
*1182 FILLER_0_27_177
*1183 FILLER_0_27_213
*1184 FILLER_0_27_245
*1185 FILLER_0_27_253
*1186 FILLER_0_27_275
*1187 FILLER_0_27_3
*1188 FILLER_0_27_31
*1189 FILLER_0_27_37
*1190 FILLER_0_27_49
*1191 FILLER_0_27_55
*1192 FILLER_0_27_57
*1193 FILLER_0_27_69
*1194 FILLER_0_27_81
*1195 FILLER_0_28_108
*1196 FILLER_0_28_116
*1197 FILLER_0_28_127
*1198 FILLER_0_28_139
*1199 FILLER_0_28_141
*1200 FILLER_0_28_153
*1201 FILLER_0_28_168
*1202 FILLER_0_28_180
*1203 FILLER_0_28_192
*1204 FILLER_0_28_20
*1205 FILLER_0_28_200
*1206 FILLER_0_28_212
*1207 FILLER_0_28_220
*1208 FILLER_0_28_276
*1209 FILLER_0_28_3
*1210 FILLER_0_28_47
*1211 FILLER_0_28_59
*1212 FILLER_0_28_76
*1213 FILLER_0_28_85
*1214 FILLER_0_28_89
*1215 FILLER_0_28_99
*1216 FILLER_0_29_113
*1217 FILLER_0_29_125
*1218 FILLER_0_29_137
*1219 FILLER_0_29_149
*1220 FILLER_0_29_155
*1221 FILLER_0_29_180
*1222 FILLER_0_29_195
*1223 FILLER_0_29_207
*1224 FILLER_0_29_219
*1225 FILLER_0_29_223
*1226 FILLER_0_29_225
*1227 FILLER_0_29_275
*1228 FILLER_0_29_50
*1229 FILLER_0_29_57
*1230 FILLER_0_29_83
*1231 FILLER_0_2_104
*1232 FILLER_0_2_116
*1233 FILLER_0_2_136
*1234 FILLER_0_2_15
*1235 FILLER_0_2_150
*1236 FILLER_0_2_195
*1237 FILLER_0_2_197
*1238 FILLER_0_2_209
*1239 FILLER_0_2_213
*1240 FILLER_0_2_244
*1241 FILLER_0_2_256
*1242 FILLER_0_2_261
*1243 FILLER_0_2_27
*1244 FILLER_0_2_273
*1245 FILLER_0_2_29
*1246 FILLER_0_2_3
*1247 FILLER_0_2_40
*1248 FILLER_0_2_60
*1249 FILLER_0_2_78
*1250 FILLER_0_30_109
*1251 FILLER_0_30_113
*1252 FILLER_0_30_121
*1253 FILLER_0_30_133
*1254 FILLER_0_30_139
*1255 FILLER_0_30_14
*1256 FILLER_0_30_141
*1257 FILLER_0_30_147
*1258 FILLER_0_30_164
*1259 FILLER_0_30_189
*1260 FILLER_0_30_195
*1261 FILLER_0_30_203
*1262 FILLER_0_30_215
*1263 FILLER_0_30_22
*1264 FILLER_0_30_227
*1265 FILLER_0_30_231
*1266 FILLER_0_30_243
*1267 FILLER_0_30_251
*1268 FILLER_0_30_253
*1269 FILLER_0_30_276
*1270 FILLER_0_30_29
*1271 FILLER_0_30_3
*1272 FILLER_0_30_48
*1273 FILLER_0_30_60
*1274 FILLER_0_30_81
*1275 FILLER_0_30_85
*1276 FILLER_0_30_92
*1277 FILLER_0_31_11
*1278 FILLER_0_31_125
*1279 FILLER_0_31_151
*1280 FILLER_0_31_159
*1281 FILLER_0_31_17
*1282 FILLER_0_31_182
*1283 FILLER_0_31_186
*1284 FILLER_0_31_206
*1285 FILLER_0_31_213
*1286 FILLER_0_31_221
*1287 FILLER_0_31_245
*1288 FILLER_0_31_257
*1289 FILLER_0_31_269
*1290 FILLER_0_31_27
*1291 FILLER_0_31_3
*1292 FILLER_0_31_35
*1293 FILLER_0_31_48
*1294 FILLER_0_31_60
*1295 FILLER_0_31_78
*1296 FILLER_0_31_82
*1297 FILLER_0_32_150
*1298 FILLER_0_32_162
*1299 FILLER_0_32_210
*1300 FILLER_0_32_238
*1301 FILLER_0_32_246
*1302 FILLER_0_32_25
*1303 FILLER_0_32_251
*1304 FILLER_0_32_253
*1305 FILLER_0_32_266
*1306 FILLER_0_32_274
*1307 FILLER_0_32_3
*1308 FILLER_0_32_36
*1309 FILLER_0_32_77
*1310 FILLER_0_33_100
*1311 FILLER_0_33_11
*1312 FILLER_0_33_113
*1313 FILLER_0_33_125
*1314 FILLER_0_33_129
*1315 FILLER_0_33_136
*1316 FILLER_0_33_146
*1317 FILLER_0_33_158
*1318 FILLER_0_33_166
*1319 FILLER_0_33_169
*1320 FILLER_0_33_17
*1321 FILLER_0_33_222
*1322 FILLER_0_33_228
*1323 FILLER_0_33_235
*1324 FILLER_0_33_243
*1325 FILLER_0_33_272
*1326 FILLER_0_33_276
*1327 FILLER_0_33_28
*1328 FILLER_0_33_3
*1329 FILLER_0_33_36
*1330 FILLER_0_33_40
*1331 FILLER_0_33_50
*1332 FILLER_0_33_57
*1333 FILLER_0_33_73
*1334 FILLER_0_33_85
*1335 FILLER_0_34_110
*1336 FILLER_0_34_122
*1337 FILLER_0_34_134
*1338 FILLER_0_34_141
*1339 FILLER_0_34_145
*1340 FILLER_0_34_149
*1341 FILLER_0_34_161
*1342 FILLER_0_34_188
*1343 FILLER_0_34_195
*1344 FILLER_0_34_231
*1345 FILLER_0_34_243
*1346 FILLER_0_34_25
*1347 FILLER_0_34_251
*1348 FILLER_0_34_253
*1349 FILLER_0_34_3
*1350 FILLER_0_34_38
*1351 FILLER_0_34_42
*1352 FILLER_0_34_54
*1353 FILLER_0_34_74
*1354 FILLER_0_34_82
*1355 FILLER_0_34_85
*1356 FILLER_0_34_98
*1357 FILLER_0_35_108
*1358 FILLER_0_35_122
*1359 FILLER_0_35_134
*1360 FILLER_0_35_167
*1361 FILLER_0_35_169
*1362 FILLER_0_35_181
*1363 FILLER_0_35_223
*1364 FILLER_0_35_228
*1365 FILLER_0_35_240
*1366 FILLER_0_35_258
*1367 FILLER_0_35_26
*1368 FILLER_0_35_262
*1369 FILLER_0_35_269
*1370 FILLER_0_35_3
*1371 FILLER_0_35_65
*1372 FILLER_0_35_77
*1373 FILLER_0_35_85
*1374 FILLER_0_35_9
*1375 FILLER_0_35_96
*1376 FILLER_0_36_101
*1377 FILLER_0_36_107
*1378 FILLER_0_36_124
*1379 FILLER_0_36_136
*1380 FILLER_0_36_141
*1381 FILLER_0_36_160
*1382 FILLER_0_36_18
*1383 FILLER_0_36_230
*1384 FILLER_0_36_238
*1385 FILLER_0_36_256
*1386 FILLER_0_36_26
*1387 FILLER_0_36_268
*1388 FILLER_0_36_276
*1389 FILLER_0_36_29
*1390 FILLER_0_36_3
*1391 FILLER_0_36_37
*1392 FILLER_0_36_42
*1393 FILLER_0_36_49
*1394 FILLER_0_36_61
*1395 FILLER_0_36_65
*1396 FILLER_0_36_75
*1397 FILLER_0_37_11
*1398 FILLER_0_37_142
*1399 FILLER_0_37_156
*1400 FILLER_0_37_16
*1401 FILLER_0_37_175
*1402 FILLER_0_37_221
*1403 FILLER_0_37_225
*1404 FILLER_0_37_236
*1405 FILLER_0_37_244
*1406 FILLER_0_37_265
*1407 FILLER_0_37_273
*1408 FILLER_0_37_3
*1409 FILLER_0_37_34
*1410 FILLER_0_37_46
*1411 FILLER_0_37_54
*1412 FILLER_0_37_83
*1413 FILLER_0_38_157
*1414 FILLER_0_38_195
*1415 FILLER_0_38_219
*1416 FILLER_0_38_227
*1417 FILLER_0_38_25
*1418 FILLER_0_38_259
*1419 FILLER_0_38_271
*1420 FILLER_0_38_29
*1421 FILLER_0_38_3
*1422 FILLER_0_38_37
*1423 FILLER_0_38_63
*1424 FILLER_0_38_85
*1425 FILLER_0_38_93
*1426 FILLER_0_39_103
*1427 FILLER_0_39_113
*1428 FILLER_0_39_153
*1429 FILLER_0_39_210
*1430 FILLER_0_39_222
*1431 FILLER_0_39_225
*1432 FILLER_0_39_229
*1433 FILLER_0_39_237
*1434 FILLER_0_39_263
*1435 FILLER_0_39_275
*1436 FILLER_0_39_3
*1437 FILLER_0_39_51
*1438 FILLER_0_39_55
*1439 FILLER_0_39_66
*1440 FILLER_0_39_79
*1441 FILLER_0_39_91
*1442 FILLER_0_3_110
*1443 FILLER_0_3_113
*1444 FILLER_0_3_121
*1445 FILLER_0_3_126
*1446 FILLER_0_3_146
*1447 FILLER_0_3_15
*1448 FILLER_0_3_167
*1449 FILLER_0_3_185
*1450 FILLER_0_3_212
*1451 FILLER_0_3_248
*1452 FILLER_0_3_272
*1453 FILLER_0_3_276
*1454 FILLER_0_3_3
*1455 FILLER_0_3_48
*1456 FILLER_0_3_52
*1457 FILLER_0_3_57
*1458 FILLER_0_3_79
*1459 FILLER_0_40_109
*1460 FILLER_0_40_121
*1461 FILLER_0_40_129
*1462 FILLER_0_40_134
*1463 FILLER_0_40_141
*1464 FILLER_0_40_153
*1465 FILLER_0_40_165
*1466 FILLER_0_40_177
*1467 FILLER_0_40_189
*1468 FILLER_0_40_195
*1469 FILLER_0_40_197
*1470 FILLER_0_40_203
*1471 FILLER_0_40_230
*1472 FILLER_0_40_238
*1473 FILLER_0_40_24
*1474 FILLER_0_40_250
*1475 FILLER_0_40_256
*1476 FILLER_0_40_268
*1477 FILLER_0_40_276
*1478 FILLER_0_40_29
*1479 FILLER_0_40_3
*1480 FILLER_0_40_37
*1481 FILLER_0_40_57
*1482 FILLER_0_40_69
*1483 FILLER_0_40_7
*1484 FILLER_0_40_81
*1485 FILLER_0_40_85
*1486 FILLER_0_40_97
*1487 FILLER_0_41_107
*1488 FILLER_0_41_11
*1489 FILLER_0_41_111
*1490 FILLER_0_41_113
*1491 FILLER_0_41_125
*1492 FILLER_0_41_137
*1493 FILLER_0_41_149
*1494 FILLER_0_41_16
*1495 FILLER_0_41_161
*1496 FILLER_0_41_167
*1497 FILLER_0_41_169
*1498 FILLER_0_41_181
*1499 FILLER_0_41_193
*1500 FILLER_0_41_208
*1501 FILLER_0_41_220
*1502 FILLER_0_41_225
*1503 FILLER_0_41_237
*1504 FILLER_0_41_249
*1505 FILLER_0_41_26
*1506 FILLER_0_41_261
*1507 FILLER_0_41_273
*1508 FILLER_0_41_3
*1509 FILLER_0_41_38
*1510 FILLER_0_41_44
*1511 FILLER_0_41_48
*1512 FILLER_0_41_66
*1513 FILLER_0_41_78
*1514 FILLER_0_41_89
*1515 FILLER_0_41_97
*1516 FILLER_0_42_122
*1517 FILLER_0_42_128
*1518 FILLER_0_42_138
*1519 FILLER_0_42_141
*1520 FILLER_0_42_15
*1521 FILLER_0_42_153
*1522 FILLER_0_42_166
*1523 FILLER_0_42_174
*1524 FILLER_0_42_178
*1525 FILLER_0_42_190
*1526 FILLER_0_42_204
*1527 FILLER_0_42_218
*1528 FILLER_0_42_229
*1529 FILLER_0_42_235
*1530 FILLER_0_42_242
*1531 FILLER_0_42_250
*1532 FILLER_0_42_253
*1533 FILLER_0_42_265
*1534 FILLER_0_42_27
*1535 FILLER_0_42_29
*1536 FILLER_0_42_3
*1537 FILLER_0_42_41
*1538 FILLER_0_42_45
*1539 FILLER_0_42_62
*1540 FILLER_0_42_88
*1541 FILLER_0_42_98
*1542 FILLER_0_43_116
*1543 FILLER_0_43_128
*1544 FILLER_0_43_149
*1545 FILLER_0_43_15
*1546 FILLER_0_43_166
*1547 FILLER_0_43_185
*1548 FILLER_0_43_189
*1549 FILLER_0_43_202
*1550 FILLER_0_43_228
*1551 FILLER_0_43_252
*1552 FILLER_0_43_264
*1553 FILLER_0_43_276
*1554 FILLER_0_43_3
*1555 FILLER_0_43_55
*1556 FILLER_0_43_57
*1557 FILLER_0_43_63
*1558 FILLER_0_43_80
*1559 FILLER_0_44_121
*1560 FILLER_0_44_139
*1561 FILLER_0_44_141
*1562 FILLER_0_44_15
*1563 FILLER_0_44_195
*1564 FILLER_0_44_220
*1565 FILLER_0_44_232
*1566 FILLER_0_44_243
*1567 FILLER_0_44_251
*1568 FILLER_0_44_253
*1569 FILLER_0_44_265
*1570 FILLER_0_44_27
*1571 FILLER_0_44_29
*1572 FILLER_0_44_3
*1573 FILLER_0_44_33
*1574 FILLER_0_44_52
*1575 FILLER_0_44_64
*1576 FILLER_0_44_94
*1577 FILLER_0_45_111
*1578 FILLER_0_45_113
*1579 FILLER_0_45_125
*1580 FILLER_0_45_130
*1581 FILLER_0_45_149
*1582 FILLER_0_45_15
*1583 FILLER_0_45_153
*1584 FILLER_0_45_169
*1585 FILLER_0_45_186
*1586 FILLER_0_45_211
*1587 FILLER_0_45_223
*1588 FILLER_0_45_225
*1589 FILLER_0_45_237
*1590 FILLER_0_45_249
*1591 FILLER_0_45_261
*1592 FILLER_0_45_27
*1593 FILLER_0_45_273
*1594 FILLER_0_45_3
*1595 FILLER_0_45_39
*1596 FILLER_0_45_43
*1597 FILLER_0_45_55
*1598 FILLER_0_45_57
*1599 FILLER_0_45_69
*1600 FILLER_0_45_83
*1601 FILLER_0_46_104
*1602 FILLER_0_46_111
*1603 FILLER_0_46_113
*1604 FILLER_0_46_118
*1605 FILLER_0_46_125
*1606 FILLER_0_46_137
*1607 FILLER_0_46_141
*1608 FILLER_0_46_146
*1609 FILLER_0_46_15
*1610 FILLER_0_46_158
*1611 FILLER_0_46_166
*1612 FILLER_0_46_169
*1613 FILLER_0_46_177
*1614 FILLER_0_46_181
*1615 FILLER_0_46_193
*1616 FILLER_0_46_203
*1617 FILLER_0_46_209
*1618 FILLER_0_46_225
*1619 FILLER_0_46_237
*1620 FILLER_0_46_249
*1621 FILLER_0_46_253
*1622 FILLER_0_46_265
*1623 FILLER_0_46_27
*1624 FILLER_0_46_29
*1625 FILLER_0_46_3
*1626 FILLER_0_46_41
*1627 FILLER_0_46_53
*1628 FILLER_0_46_57
*1629 FILLER_0_46_69
*1630 FILLER_0_46_81
*1631 FILLER_0_46_85
*1632 FILLER_0_46_93
*1633 FILLER_0_46_97
*1634 FILLER_0_4_111
*1635 FILLER_0_4_123
*1636 FILLER_0_4_149
*1637 FILLER_0_4_15
*1638 FILLER_0_4_161
*1639 FILLER_0_4_177
*1640 FILLER_0_4_218
*1641 FILLER_0_4_235
*1642 FILLER_0_4_243
*1643 FILLER_0_4_247
*1644 FILLER_0_4_251
*1645 FILLER_0_4_256
*1646 FILLER_0_4_268
*1647 FILLER_0_4_27
*1648 FILLER_0_4_276
*1649 FILLER_0_4_3
*1650 FILLER_0_4_32
*1651 FILLER_0_4_36
*1652 FILLER_0_4_40
*1653 FILLER_0_4_46
*1654 FILLER_0_4_54
*1655 FILLER_0_4_64
*1656 FILLER_0_4_68
*1657 FILLER_0_4_78
*1658 FILLER_0_4_85
*1659 FILLER_0_5_101
*1660 FILLER_0_5_109
*1661 FILLER_0_5_113
*1662 FILLER_0_5_125
*1663 FILLER_0_5_132
*1664 FILLER_0_5_15
*1665 FILLER_0_5_172
*1666 FILLER_0_5_218
*1667 FILLER_0_5_225