* NGSPICE file created from async_fifo.ext - technology: sky130A

* Black-box entry subcircuit for sky130_fd_sc_hd__fill_1 abstract view
.subckt sky130_fd_sc_hd__fill_1 VGND VNB VPB VPWR
.ends

* Black-box entry subcircuit for sky130_fd_sc_hd__tapvpwrvgnd_1 abstract view
.subckt sky130_fd_sc_hd__tapvpwrvgnd_1 VGND VPWR
.ends

* Black-box entry subcircuit for sky130_fd_sc_hd__mux2_1 abstract view
.subckt sky130_fd_sc_hd__mux2_1 A0 A1 S VGND VNB VPB VPWR X
.ends

* Black-box entry subcircuit for sky130_fd_sc_hd__decap_8 abstract view
.subckt sky130_fd_sc_hd__decap_8 VGND VNB VPB VPWR
.ends

* Black-box entry subcircuit for sky130_fd_sc_hd__inv_2 abstract view
.subckt sky130_fd_sc_hd__inv_2 A VGND VNB VPB VPWR Y
.ends

* Black-box entry subcircuit for sky130_fd_sc_hd__dfxtp_1 abstract view
.subckt sky130_fd_sc_hd__dfxtp_1 CLK D VGND VNB VPB VPWR Q
.ends

* Black-box entry subcircuit for sky130_ef_sc_hd__decap_12 abstract view
.subckt sky130_ef_sc_hd__decap_12 VPWR VGND VPB VNB
.ends

* Black-box entry subcircuit for sky130_fd_sc_hd__decap_6 abstract view
.subckt sky130_fd_sc_hd__decap_6 VGND VNB VPB VPWR
.ends

* Black-box entry subcircuit for sky130_fd_sc_hd__nor2_1 abstract view
.subckt sky130_fd_sc_hd__nor2_1 A B VGND VNB VPB VPWR Y
.ends

* Black-box entry subcircuit for sky130_fd_sc_hd__fill_2 abstract view
.subckt sky130_fd_sc_hd__fill_2 VGND VNB VPB VPWR
.ends

* Black-box entry subcircuit for sky130_fd_sc_hd__a22o_1 abstract view
.subckt sky130_fd_sc_hd__a22o_1 A1 A2 B1 B2 VGND VNB VPB VPWR X
.ends

* Black-box entry subcircuit for sky130_fd_sc_hd__dfrtp_1 abstract view
.subckt sky130_fd_sc_hd__dfrtp_1 CLK D RESET_B VGND VNB VPB VPWR Q
.ends

* Black-box entry subcircuit for sky130_fd_sc_hd__decap_4 abstract view
.subckt sky130_fd_sc_hd__decap_4 VGND VNB VPB VPWR
.ends

* Black-box entry subcircuit for sky130_fd_sc_hd__a211o_1 abstract view
.subckt sky130_fd_sc_hd__a211o_1 A1 A2 B1 C1 VGND VNB VPB VPWR X
.ends

* Black-box entry subcircuit for sky130_fd_sc_hd__a221o_1 abstract view
.subckt sky130_fd_sc_hd__a221o_1 A1 A2 B1 B2 C1 VGND VNB VPB VPWR X
.ends

* Black-box entry subcircuit for sky130_fd_sc_hd__or2b_1 abstract view
.subckt sky130_fd_sc_hd__or2b_1 A B_N VGND VNB VPB VPWR X
.ends

* Black-box entry subcircuit for sky130_fd_sc_hd__decap_3 abstract view
.subckt sky130_fd_sc_hd__decap_3 VGND VNB VPB VPWR
.ends

* Black-box entry subcircuit for sky130_fd_sc_hd__and2_1 abstract view
.subckt sky130_fd_sc_hd__and2_1 A B VGND VNB VPB VPWR X
.ends

* Black-box entry subcircuit for sky130_fd_sc_hd__buf_1 abstract view
.subckt sky130_fd_sc_hd__buf_1 A VGND VNB VPB VPWR X
.ends

* Black-box entry subcircuit for sky130_fd_sc_hd__clkbuf_1 abstract view
.subckt sky130_fd_sc_hd__clkbuf_1 A VGND VNB VPB VPWR X
.ends

* Black-box entry subcircuit for sky130_fd_sc_hd__buf_2 abstract view
.subckt sky130_fd_sc_hd__buf_2 A VGND VNB VPB VPWR X
.ends

* Black-box entry subcircuit for sky130_fd_sc_hd__or4_1 abstract view
.subckt sky130_fd_sc_hd__or4_1 A B C D VGND VNB VPB VPWR X
.ends

* Black-box entry subcircuit for sky130_fd_sc_hd__xor2_1 abstract view
.subckt sky130_fd_sc_hd__xor2_1 A B VGND VNB VPB VPWR X
.ends

* Black-box entry subcircuit for sky130_fd_sc_hd__and4bb_4 abstract view
.subckt sky130_fd_sc_hd__and4bb_4 A_N B_N C D VGND VNB VPB VPWR X
.ends

* Black-box entry subcircuit for sky130_fd_sc_hd__o21a_1 abstract view
.subckt sky130_fd_sc_hd__o21a_1 A1 A2 B1 VGND VNB VPB VPWR X
.ends

* Black-box entry subcircuit for sky130_fd_sc_hd__clkbuf_8 abstract view
.subckt sky130_fd_sc_hd__clkbuf_8 A VGND VNB VPB VPWR X
.ends

* Black-box entry subcircuit for sky130_fd_sc_hd__o2111a_4 abstract view
.subckt sky130_fd_sc_hd__o2111a_4 A1 A2 B1 C1 D1 VGND VNB VPB VPWR X
.ends

* Black-box entry subcircuit for sky130_fd_sc_hd__nor3_4 abstract view
.subckt sky130_fd_sc_hd__nor3_4 A B C VGND VNB VPB VPWR Y
.ends

* Black-box entry subcircuit for sky130_fd_sc_hd__clkinv_1 abstract view
.subckt sky130_fd_sc_hd__clkinv_1 A VGND VNB VPB VPWR Y
.ends

* Black-box entry subcircuit for sky130_fd_sc_hd__clkinvlp_4 abstract view
.subckt sky130_fd_sc_hd__clkinvlp_4 A VGND VNB VPB VPWR Y
.ends

* Black-box entry subcircuit for sky130_fd_sc_hd__nor4b_4 abstract view
.subckt sky130_fd_sc_hd__nor4b_4 A B C D_N VGND VNB VPB VPWR Y
.ends

* Black-box entry subcircuit for sky130_fd_sc_hd__a21oi_1 abstract view
.subckt sky130_fd_sc_hd__a21oi_1 A1 A2 B1 VGND VNB VPB VPWR Y
.ends

* Black-box entry subcircuit for sky130_fd_sc_hd__clkinv_4 abstract view
.subckt sky130_fd_sc_hd__clkinv_4 A VGND VNB VPB VPWR Y
.ends

* Black-box entry subcircuit for sky130_fd_sc_hd__clkbuf_4 abstract view
.subckt sky130_fd_sc_hd__clkbuf_4 A VGND VNB VPB VPWR X
.ends

* Black-box entry subcircuit for sky130_fd_sc_hd__inv_6 abstract view
.subckt sky130_fd_sc_hd__inv_6 A VGND VNB VPB VPWR Y
.ends

* Black-box entry subcircuit for sky130_fd_sc_hd__and4b_4 abstract view
.subckt sky130_fd_sc_hd__and4b_4 A_N B C D VGND VNB VPB VPWR X
.ends

* Black-box entry subcircuit for sky130_fd_sc_hd__o21a_2 abstract view
.subckt sky130_fd_sc_hd__o21a_2 A1 A2 B1 VGND VNB VPB VPWR X
.ends

* Black-box entry subcircuit for sky130_fd_sc_hd__and3b_4 abstract view
.subckt sky130_fd_sc_hd__and3b_4 A_N B C VGND VNB VPB VPWR X
.ends

* Black-box entry subcircuit for sky130_fd_sc_hd__o21bai_1 abstract view
.subckt sky130_fd_sc_hd__o21bai_1 A1 A2 B1_N VGND VNB VPB VPWR Y
.ends

* Black-box entry subcircuit for sky130_fd_sc_hd__bufinv_16 abstract view
.subckt sky130_fd_sc_hd__bufinv_16 A VGND VNB VPB VPWR Y
.ends

* Black-box entry subcircuit for sky130_fd_sc_hd__or2_2 abstract view
.subckt sky130_fd_sc_hd__or2_2 A B VGND VNB VPB VPWR X
.ends

* Black-box entry subcircuit for sky130_fd_sc_hd__and3_1 abstract view
.subckt sky130_fd_sc_hd__and3_1 A B C VGND VNB VPB VPWR X
.ends

* Black-box entry subcircuit for sky130_fd_sc_hd__dfrtp_4 abstract view
.subckt sky130_fd_sc_hd__dfrtp_4 CLK D RESET_B VGND VNB VPB VPWR Q
.ends

* Black-box entry subcircuit for sky130_fd_sc_hd__o211a_1 abstract view
.subckt sky130_fd_sc_hd__o211a_1 A1 A2 B1 C1 VGND VNB VPB VPWR X
.ends

* Black-box entry subcircuit for sky130_fd_sc_hd__nand2_1 abstract view
.subckt sky130_fd_sc_hd__nand2_1 A B VGND VNB VPB VPWR Y
.ends

* Black-box entry subcircuit for sky130_fd_sc_hd__xnor2_1 abstract view
.subckt sky130_fd_sc_hd__xnor2_1 A B VGND VNB VPB VPWR Y
.ends

* Black-box entry subcircuit for sky130_fd_sc_hd__inv_8 abstract view
.subckt sky130_fd_sc_hd__inv_8 A VGND VNB VPB VPWR Y
.ends

* Black-box entry subcircuit for sky130_fd_sc_hd__buf_4 abstract view
.subckt sky130_fd_sc_hd__buf_4 A VGND VNB VPB VPWR X
.ends

* Black-box entry subcircuit for sky130_fd_sc_hd__or4_4 abstract view
.subckt sky130_fd_sc_hd__or4_4 A B C D VGND VNB VPB VPWR X
.ends

* Black-box entry subcircuit for sky130_fd_sc_hd__a2bb2o_1 abstract view
.subckt sky130_fd_sc_hd__a2bb2o_1 A1_N A2_N B1 B2 VGND VNB VPB VPWR X
.ends

* Black-box entry subcircuit for sky130_fd_sc_hd__clkbuf_2 abstract view
.subckt sky130_fd_sc_hd__clkbuf_2 A VGND VNB VPB VPWR X
.ends

* Black-box entry subcircuit for sky130_fd_sc_hd__and3b_2 abstract view
.subckt sky130_fd_sc_hd__and3b_2 A_N B C VGND VNB VPB VPWR X
.ends

* Black-box entry subcircuit for sky130_fd_sc_hd__dlymetal6s2s_1 abstract view
.subckt sky130_fd_sc_hd__dlymetal6s2s_1 A VGND VNB VPB VPWR X
.ends

* Black-box entry subcircuit for sky130_fd_sc_hd__and3_2 abstract view
.subckt sky130_fd_sc_hd__and3_2 A B C VGND VNB VPB VPWR X
.ends

* Black-box entry subcircuit for sky130_fd_sc_hd__clkbuf_16 abstract view
.subckt sky130_fd_sc_hd__clkbuf_16 A VGND VNB VPB VPWR X
.ends

* Black-box entry subcircuit for sky130_fd_sc_hd__a2111o_1 abstract view
.subckt sky130_fd_sc_hd__a2111o_1 A1 A2 B1 C1 D1 VGND VNB VPB VPWR X
.ends

* Black-box entry subcircuit for sky130_fd_sc_hd__o2111ai_1 abstract view
.subckt sky130_fd_sc_hd__o2111ai_1 A1 A2 B1 C1 D1 VGND VNB VPB VPWR Y
.ends

* Black-box entry subcircuit for sky130_fd_sc_hd__nor2b_2 abstract view
.subckt sky130_fd_sc_hd__nor2b_2 A B_N VGND VNB VPB VPWR Y
.ends

* Black-box entry subcircuit for sky130_fd_sc_hd__o21ba_1 abstract view
.subckt sky130_fd_sc_hd__o21ba_1 A1 A2 B1_N VGND VNB VPB VPWR X
.ends

* Black-box entry subcircuit for sky130_fd_sc_hd__dlygate4sd3_1 abstract view
.subckt sky130_fd_sc_hd__dlygate4sd3_1 A VGND VNB VPB VPWR X
.ends

* Black-box entry subcircuit for sky130_fd_sc_hd__nand2_4 abstract view
.subckt sky130_fd_sc_hd__nand2_4 A B VGND VNB VPB VPWR Y
.ends

* Black-box entry subcircuit for sky130_fd_sc_hd__a32o_1 abstract view
.subckt sky130_fd_sc_hd__a32o_1 A1 A2 A3 B1 B2 VGND VNB VPB VPWR X
.ends

* Black-box entry subcircuit for sky130_fd_sc_hd__a31o_1 abstract view
.subckt sky130_fd_sc_hd__a31o_1 A1 A2 A3 B1 VGND VNB VPB VPWR X
.ends

* Black-box entry subcircuit for sky130_fd_sc_hd__and4_1 abstract view
.subckt sky130_fd_sc_hd__and4_1 A B C D VGND VNB VPB VPWR X
.ends

* Black-box entry subcircuit for sky130_fd_sc_hd__diode_2 abstract view
.subckt sky130_fd_sc_hd__diode_2 DIODE VGND VNB VPB VPWR
.ends

* Black-box entry subcircuit for sky130_fd_sc_hd__nor2_2 abstract view
.subckt sky130_fd_sc_hd__nor2_2 A B VGND VNB VPB VPWR Y
.ends

* Black-box entry subcircuit for sky130_fd_sc_hd__nor3_2 abstract view
.subckt sky130_fd_sc_hd__nor3_2 A B C VGND VNB VPB VPWR Y
.ends

* Black-box entry subcircuit for sky130_fd_sc_hd__or3_4 abstract view
.subckt sky130_fd_sc_hd__or3_4 A B C VGND VNB VPB VPWR X
.ends

.subckt async_fifo VGND VPWR rd_clk rd_data[0] rd_data[1] rd_data[2] rd_data[3] rd_data[4]
+ rd_data[5] rd_data[6] rd_data[7] rd_empty rd_en rd_rst wr_clk wr_data[0] wr_data[1]
+ wr_data[2] wr_data[3] wr_data[4] wr_data[5] wr_data[6] wr_data[7] wr_en wr_full
+ wr_rst
XFILLER_0_23_18 VGND VGND VPWR VPWR sky130_fd_sc_hd__fill_1
XTAP_TAPCELL_ROW_14_161 VGND VPWR sky130_fd_sc_hd__tapvpwrvgnd_1
X_0985_ mem\[9\]\[4\] _0396_ _0483_ VGND VGND VPWR VPWR _0488_ sky130_fd_sc_hd__mux2_1
XTAP_TAPCELL_ROW_6_129 VGND VPWR sky130_fd_sc_hd__tapvpwrvgnd_1
XFILLER_0_9_263 VGND VGND VPWR VPWR sky130_fd_sc_hd__decap_8
X_0770_ _0382_ VGND VGND VPWR VPWR _0012_ sky130_fd_sc_hd__inv_2
X_1253_ clknet_4_9_0_wr_clk _0183_ VGND VGND VPWR VPWR mem\[13\]\[7\] sky130_fd_sc_hd__dfxtp_1
X_1184_ clknet_4_5_0_wr_clk _0114_ VGND VGND VPWR VPWR mem\[5\]\[2\] sky130_fd_sc_hd__dfxtp_1
XFILLER_0_46_169 VGND VGND VPWR VPWR sky130_fd_sc_hd__decap_8
XFILLER_0_46_158 VGND VGND VPWR VPWR sky130_fd_sc_hd__decap_8
XFILLER_0_46_125 VPWR VGND VPWR VGND sky130_ef_sc_hd__decap_12
X_0968_ mem\[8\]\[4\] _0396_ _0474_ VGND VGND VPWR VPWR _0479_ sky130_fd_sc_hd__mux2_1
X_0899_ mem\[4\]\[5\] _0398_ _0435_ VGND VGND VPWR VPWR _0441_ sky130_fd_sc_hd__mux2_1
XTAP_TAPCELL_ROW_2_110 VGND VPWR sky130_fd_sc_hd__tapvpwrvgnd_1
XTAP_TAPCELL_ROW_25_212 VGND VPWR sky130_fd_sc_hd__tapvpwrvgnd_1
XFILLER_0_45_27 VPWR VGND VPWR VGND sky130_ef_sc_hd__decap_12
XFILLER_0_0_29 VPWR VGND VPWR VGND sky130_ef_sc_hd__decap_12
XFILLER_0_43_128 VGND VGND VPWR VPWR sky130_fd_sc_hd__fill_1
X_0822_ mem\[0\]\[4\] _0396_ _0388_ VGND VGND VPWR VPWR _0397_ sky130_fd_sc_hd__mux2_1
XFILLER_0_9_49 VGND VGND VPWR VPWR sky130_fd_sc_hd__decap_6
X_0753_ _0206_ _0222_ VGND VGND VPWR VPWR net20 sky130_fd_sc_hd__nor2_1
XFILLER_0_10_41 VPWR VGND VPWR VGND sky130_ef_sc_hd__decap_12
XFILLER_0_10_85 VGND VGND VPWR VPWR sky130_fd_sc_hd__fill_2
X_0684_ mem\[13\]\[5\] _0277_ _0298_ mem\[5\]\[5\] VGND VGND VPWR VPWR _0317_ sky130_fd_sc_hd__a22o_1
X_1236_ clknet_4_8_0_wr_clk _0166_ VGND VGND VPWR VPWR mem\[11\]\[6\] sky130_fd_sc_hd__dfxtp_1
X_1167_ clknet_4_1_0_wr_clk _0097_ VGND VGND VPWR VPWR mem\[3\]\[1\] sky130_fd_sc_hd__dfxtp_1
X_1098_ clknet_1_1__leaf_rd_clk wr_ptr_gray\[2\] _0002_ VGND VGND VPWR VPWR wr_ptr_gray_sync1\[2\]
+ sky130_fd_sc_hd__dfrtp_1
XFILLER_0_40_109 VPWR VGND VPWR VGND sky130_ef_sc_hd__decap_12
X_1021_ mem\[11\]\[5\] net7 _0501_ VGND VGND VPWR VPWR _0507_ sky130_fd_sc_hd__mux2_1
X_0805_ _0383_ VGND VGND VPWR VPWR _0045_ sky130_fd_sc_hd__inv_2
XFILLER_0_16_117 VGND VGND VPWR VPWR sky130_fd_sc_hd__fill_2
XFILLER_0_16_139 VGND VGND VPWR VPWR sky130_fd_sc_hd__fill_1
XFILLER_0_21_51 VGND VGND VPWR VPWR sky130_fd_sc_hd__decap_4
X_0667_ mem\[15\]\[7\] _0256_ _0283_ _0301_ VGND VGND VPWR VPWR _0302_ sky130_fd_sc_hd__a211o_1
X_0736_ mem\[7\]\[1\] _0295_ _0284_ mem\[6\]\[1\] _0364_ VGND VGND VPWR VPWR _0365_
+ sky130_fd_sc_hd__a221o_1
X_0598_ rd_ptr_gray\[3\] wr_ptr_gray_sync2\[3\] VGND VGND VPWR VPWR _0242_ sky130_fd_sc_hd__or2b_1
XFILLER_0_46_81 VGND VGND VPWR VPWR sky130_fd_sc_hd__decap_3
X_1219_ clknet_4_4_0_wr_clk _0149_ VGND VGND VPWR VPWR mem\[9\]\[5\] sky130_fd_sc_hd__dfxtp_1
XFILLER_0_34_3 VGND VGND VPWR VPWR sky130_fd_sc_hd__decap_6
XFILLER_0_30_164 VGND VGND VPWR VPWR sky130_fd_sc_hd__decap_3
XFILLER_0_26_29 VGND VGND VPWR VPWR sky130_fd_sc_hd__decap_4
XFILLER_0_21_131 VGND VGND VPWR VPWR sky130_fd_sc_hd__fill_2
X_1004_ mem\[10\]\[5\] net7 _0492_ VGND VGND VPWR VPWR _0498_ sky130_fd_sc_hd__mux2_1
XFILLER_0_29_275 VGND VGND VPWR VPWR sky130_fd_sc_hd__fill_2
XFILLER_0_12_164 VGND VGND VPWR VPWR sky130_fd_sc_hd__decap_8
X_0719_ mem\[5\]\[2\] _0298_ VGND VGND VPWR VPWR _0349_ sky130_fd_sc_hd__and2_1
XFILLER_0_12_197 VPWR VGND VPWR VGND sky130_ef_sc_hd__decap_12
XFILLER_0_35_223 VGND VGND VPWR VPWR sky130_fd_sc_hd__fill_1
Xoutput20 net20 VGND VGND VPWR VPWR wr_full sky130_fd_sc_hd__buf_1
XFILLER_0_26_212 VGND VGND VPWR VPWR sky130_fd_sc_hd__fill_1
XFILLER_0_41_237 VPWR VGND VPWR VGND sky130_ef_sc_hd__decap_12
XFILLER_0_17_201 VGND VGND VPWR VPWR sky130_fd_sc_hd__decap_3
XFILLER_0_7_82 VGND VGND VPWR VPWR sky130_fd_sc_hd__decap_3
XFILLER_0_4_161 VGND VGND VPWR VPWR sky130_fd_sc_hd__decap_8
X_0984_ _0487_ VGND VGND VPWR VPWR _0147_ sky130_fd_sc_hd__clkbuf_1
XTAP_TAPCELL_ROW_14_162 VGND VPWR sky130_fd_sc_hd__tapvpwrvgnd_1
XFILLER_0_1_142 VPWR VGND VPWR VGND sky130_ef_sc_hd__decap_12
XFILLER_0_38_93 VGND VGND VPWR VPWR sky130_fd_sc_hd__fill_1
XTAP_TAPCELL_ROW_37_265 VGND VPWR sky130_fd_sc_hd__tapvpwrvgnd_1
XFILLER_0_9_220 VGND VGND VPWR VPWR sky130_fd_sc_hd__fill_1
X_1252_ clknet_4_10_0_wr_clk _0182_ VGND VGND VPWR VPWR mem\[13\]\[6\] sky130_fd_sc_hd__dfxtp_1
XFILLER_0_46_104 VGND VGND VPWR VPWR sky130_fd_sc_hd__decap_4
X_1183_ clknet_4_5_0_wr_clk _0113_ VGND VGND VPWR VPWR mem\[5\]\[1\] sky130_fd_sc_hd__dfxtp_1
XFILLER_0_46_137 VGND VGND VPWR VPWR sky130_fd_sc_hd__decap_3
XTAP_TAPCELL_ROW_42_290 VGND VPWR sky130_fd_sc_hd__tapvpwrvgnd_1
XFILLER_0_6_245 VGND VGND VPWR VPWR sky130_fd_sc_hd__decap_3
X_0967_ _0478_ VGND VGND VPWR VPWR _0139_ sky130_fd_sc_hd__clkbuf_1
XFILLER_0_10_251 VGND VGND VPWR VPWR sky130_fd_sc_hd__fill_1
X_0898_ _0440_ VGND VGND VPWR VPWR _0108_ sky130_fd_sc_hd__clkbuf_1
XPHY_EDGE_ROW_12_Right_12 VGND VGND VPWR VPWR sky130_fd_sc_hd__decap_3
XTAP_TAPCELL_ROW_2_111 VGND VPWR sky130_fd_sc_hd__tapvpwrvgnd_1
XPHY_EDGE_ROW_21_Right_21 VGND VGND VPWR VPWR sky130_fd_sc_hd__decap_3
XTAP_TAPCELL_ROW_25_213 VGND VPWR sky130_fd_sc_hd__tapvpwrvgnd_1
XPHY_EDGE_ROW_30_Right_30 VGND VGND VPWR VPWR sky130_fd_sc_hd__decap_3
XFILLER_0_45_39 VGND VGND VPWR VPWR sky130_fd_sc_hd__fill_1
X_0752_ net11 _0275_ _0378_ _0379_ VGND VGND VPWR VPWR _0046_ sky130_fd_sc_hd__a22o_1
X_0821_ net6 VGND VGND VPWR VPWR _0396_ sky130_fd_sc_hd__buf_2
XTAP_TAPCELL_ROW_31_238 VGND VPWR sky130_fd_sc_hd__tapvpwrvgnd_1
XFILLER_0_3_248 VGND VGND VPWR VPWR sky130_fd_sc_hd__fill_1
XFILLER_0_10_53 VGND VGND VPWR VPWR sky130_fd_sc_hd__decap_8
X_0683_ mem\[11\]\[5\] _0278_ _0315_ _0282_ VGND VGND VPWR VPWR _0316_ sky130_fd_sc_hd__a211o_1
X_1166_ clknet_4_14_0_wr_clk _0096_ VGND VGND VPWR VPWR mem\[3\]\[0\] sky130_fd_sc_hd__dfxtp_1
X_1235_ clknet_4_6_0_wr_clk _0165_ VGND VGND VPWR VPWR mem\[11\]\[5\] sky130_fd_sc_hd__dfxtp_1
X_1097_ clknet_1_1__leaf_rd_clk wr_ptr_gray\[1\] _0001_ VGND VGND VPWR VPWR wr_ptr_gray_sync1\[1\]
+ sky130_fd_sc_hd__dfrtp_1
X_1020_ _0506_ VGND VGND VPWR VPWR _0164_ sky130_fd_sc_hd__clkbuf_1
XPHY_EDGE_ROW_28_Left_75 VGND VGND VPWR VPWR sky130_fd_sc_hd__decap_3
XPHY_EDGE_ROW_12_Left_59 VGND VGND VPWR VPWR sky130_fd_sc_hd__decap_3
X_0804_ _0383_ VGND VGND VPWR VPWR _0044_ sky130_fd_sc_hd__inv_2
XFILLER_0_24_195 VGND VGND VPWR VPWR sky130_fd_sc_hd__fill_1
X_0735_ mem\[4\]\[1\] _0280_ _0296_ mem\[8\]\[1\] VGND VGND VPWR VPWR _0364_ sky130_fd_sc_hd__a22o_1
X_0666_ _0285_ _0288_ _0294_ _0300_ VGND VGND VPWR VPWR _0301_ sky130_fd_sc_hd__or4_1
X_0597_ rd_ptr_gray\[0\] wr_ptr_gray_sync2\[0\] VGND VGND VPWR VPWR _0241_ sky130_fd_sc_hd__xor2_1
XFILLER_0_46_93 VGND VGND VPWR VPWR sky130_fd_sc_hd__fill_1
X_1149_ clknet_4_7_0_wr_clk _0079_ VGND VGND VPWR VPWR mem\[0\]\[7\] sky130_fd_sc_hd__dfxtp_1
X_1218_ clknet_4_0_0_wr_clk _0148_ VGND VGND VPWR VPWR mem\[9\]\[4\] sky130_fd_sc_hd__dfxtp_1
XFILLER_0_27_3 VGND VGND VPWR VPWR sky130_fd_sc_hd__decap_3
XFILLER_0_30_121 VPWR VGND VPWR VGND sky130_ef_sc_hd__decap_12
XFILLER_0_42_29 VGND VGND VPWR VPWR sky130_fd_sc_hd__decap_3
XFILLER_0_6_29 VPWR VGND VPWR VGND sky130_ef_sc_hd__decap_12
XFILLER_0_21_187 VGND VGND VPWR VPWR sky130_fd_sc_hd__fill_1
X_1003_ _0497_ VGND VGND VPWR VPWR _0156_ sky130_fd_sc_hd__clkbuf_1
XFILLER_0_16_41 VPWR VGND VPWR VGND sky130_ef_sc_hd__decap_12
XFILLER_0_16_85 VGND VGND VPWR VPWR sky130_fd_sc_hd__fill_1
XPHY_EDGE_ROW_6_Right_6 VGND VGND VPWR VPWR sky130_fd_sc_hd__decap_3
X_0718_ mem\[14\]\[2\] _0291_ _0347_ _0282_ VGND VGND VPWR VPWR _0348_ sky130_fd_sc_hd__a211o_1
X_0649_ _0279_ rd_ptr\[0\] rd_ptr\[1\] rd_ptr\[2\] VGND VGND VPWR VPWR _0284_ sky130_fd_sc_hd__and4bb_4
XFILLER_0_7_181 VGND VGND VPWR VPWR sky130_fd_sc_hd__decap_4
XFILLER_0_41_249 VPWR VGND VPWR VGND sky130_ef_sc_hd__decap_12
XFILLER_0_17_268 VGND VGND VPWR VPWR sky130_fd_sc_hd__decap_8
XFILLER_0_32_238 VGND VGND VPWR VPWR sky130_fd_sc_hd__decap_8
XTAP_TAPCELL_ROW_9_139 VGND VPWR sky130_fd_sc_hd__tapvpwrvgnd_1
XPHY_EDGE_ROW_15_Left_62 VGND VGND VPWR VPWR sky130_fd_sc_hd__decap_3
X_0983_ mem\[9\]\[3\] _0394_ _0483_ VGND VGND VPWR VPWR _0487_ sky130_fd_sc_hd__mux2_1
XTAP_TAPCELL_ROW_14_163 VGND VPWR sky130_fd_sc_hd__tapvpwrvgnd_1
XFILLER_0_1_154 VGND VGND VPWR VPWR sky130_fd_sc_hd__fill_1
XTAP_TAPCELL_ROW_37_266 VGND VPWR sky130_fd_sc_hd__tapvpwrvgnd_1
XTAP_TAPCELL_ROW_20_188 VGND VPWR sky130_fd_sc_hd__tapvpwrvgnd_1
XPHY_EDGE_ROW_0_Left_47 VGND VGND VPWR VPWR sky130_fd_sc_hd__decap_3
X_1251_ clknet_4_6_0_wr_clk _0181_ VGND VGND VPWR VPWR mem\[13\]\[5\] sky130_fd_sc_hd__dfxtp_1
X_1182_ clknet_4_12_0_wr_clk _0112_ VGND VGND VPWR VPWR mem\[5\]\[0\] sky130_fd_sc_hd__dfxtp_1
XTAP_TAPCELL_ROW_42_291 VGND VPWR sky130_fd_sc_hd__tapvpwrvgnd_1
XPHY_EDGE_ROW_42_Left_89 VGND VGND VPWR VPWR sky130_fd_sc_hd__decap_3
X_0966_ mem\[8\]\[3\] _0394_ _0474_ VGND VGND VPWR VPWR _0478_ sky130_fd_sc_hd__mux2_1
X_0897_ mem\[4\]\[4\] _0396_ _0435_ VGND VGND VPWR VPWR _0440_ sky130_fd_sc_hd__mux2_1
XFILLER_0_4_40 VGND VGND VPWR VPWR sky130_fd_sc_hd__decap_6
XTAP_TAPCELL_ROW_25_214 VGND VPWR sky130_fd_sc_hd__tapvpwrvgnd_1
XFILLER_0_28_116 VGND VGND VPWR VPWR sky130_fd_sc_hd__fill_2
XFILLER_0_28_127 VPWR VGND VPWR VGND sky130_ef_sc_hd__decap_12
X_0751_ mem\[0\]\[0\] _0303_ _0251_ VGND VGND VPWR VPWR _0379_ sky130_fd_sc_hd__o21a_1
X_0820_ _0395_ VGND VGND VPWR VPWR _0075_ sky130_fd_sc_hd__clkbuf_1
XFILLER_0_36_160 VGND VGND VPWR VPWR sky130_fd_sc_hd__decap_4
XTAP_TAPCELL_ROW_31_239 VGND VPWR sky130_fd_sc_hd__tapvpwrvgnd_1
X_0682_ mem\[15\]\[5\] _0256_ _0296_ mem\[8\]\[5\] VGND VGND VPWR VPWR _0315_ sky130_fd_sc_hd__a22o_1
X_1234_ clknet_4_0_0_wr_clk _0164_ VGND VGND VPWR VPWR mem\[11\]\[4\] sky130_fd_sc_hd__dfxtp_1
X_1165_ clknet_4_3_0_wr_clk _0095_ VGND VGND VPWR VPWR mem\[2\]\[7\] sky130_fd_sc_hd__dfxtp_1
X_1096_ clknet_1_1__leaf_rd_clk wr_ptr_gray\[0\] _0000_ VGND VGND VPWR VPWR wr_ptr_gray_sync1\[0\]
+ sky130_fd_sc_hd__dfrtp_1
XFILLER_0_42_174 VGND VGND VPWR VPWR sky130_fd_sc_hd__fill_1
XFILLER_0_42_141 VPWR VGND VPWR VGND sky130_ef_sc_hd__decap_12
X_0949_ _0468_ VGND VGND VPWR VPWR _0131_ sky130_fd_sc_hd__clkbuf_1
Xclkbuf_4_13_0_wr_clk clknet_0_wr_clk VGND VGND VPWR VPWR clknet_4_13_0_wr_clk sky130_fd_sc_hd__clkbuf_8
XFILLER_0_25_108 VGND VGND VPWR VPWR sky130_fd_sc_hd__fill_1
XPHY_EDGE_ROW_3_Left_50 VGND VGND VPWR VPWR sky130_fd_sc_hd__decap_3
X_0803_ _0383_ VGND VGND VPWR VPWR _0043_ sky130_fd_sc_hd__inv_2
X_0734_ mem\[12\]\[1\] _0290_ _0292_ mem\[10\]\[1\] _0362_ VGND VGND VPWR VPWR _0363_
+ sky130_fd_sc_hd__a221o_1
XFILLER_0_24_141 VGND VGND VPWR VPWR sky130_fd_sc_hd__decap_8
X_0665_ mem\[7\]\[7\] _0295_ _0296_ mem\[8\]\[7\] _0299_ VGND VGND VPWR VPWR _0300_
+ sky130_fd_sc_hd__a221o_1
X_0596_ _0238_ wr_ptr_gray_sync2\[1\] _0239_ rd_ptr_gray\[3\] VGND VGND VPWR VPWR
+ _0240_ sky130_fd_sc_hd__a22o_1
X_1148_ clknet_4_13_0_wr_clk _0078_ VGND VGND VPWR VPWR mem\[0\]\[6\] sky130_fd_sc_hd__dfxtp_1
X_1217_ clknet_4_7_0_wr_clk _0147_ VGND VGND VPWR VPWR mem\[9\]\[3\] sky130_fd_sc_hd__dfxtp_1
X_1079_ _0453_ _0454_ _0223_ _0022_ _0201_ VGND VGND VPWR VPWR _0538_ sky130_fd_sc_hd__o2111a_4
XPHY_EDGE_ROW_45_Left_92 VGND VGND VPWR VPWR sky130_fd_sc_hd__decap_3
XFILLER_0_30_133 VGND VGND VPWR VPWR sky130_fd_sc_hd__decap_6
X_1002_ mem\[10\]\[4\] net6 _0492_ VGND VGND VPWR VPWR _0497_ sky130_fd_sc_hd__mux2_1
XFILLER_0_16_53 VPWR VGND VPWR VGND sky130_ef_sc_hd__decap_12
XFILLER_0_8_149 VGND VGND VPWR VPWR sky130_fd_sc_hd__fill_2
XFILLER_0_12_188 VGND VGND VPWR VPWR sky130_fd_sc_hd__decap_8
X_0648_ mem\[13\]\[7\] _0277_ _0281_ _0282_ VGND VGND VPWR VPWR _0283_ sky130_fd_sc_hd__a211o_1
X_0717_ mem\[13\]\[2\] _0277_ _0287_ mem\[2\]\[2\] VGND VGND VPWR VPWR _0347_ sky130_fd_sc_hd__a22o_1
X_0579_ _0229_ VGND VGND VPWR VPWR _0069_ sky130_fd_sc_hd__clkbuf_1
XFILLER_0_35_269 VGND VGND VPWR VPWR sky130_fd_sc_hd__decap_8
XFILLER_0_35_258 VGND VGND VPWR VPWR sky130_fd_sc_hd__fill_1
Xoutput11 net11 VGND VGND VPWR VPWR rd_data[0] sky130_fd_sc_hd__buf_1
XFILLER_0_9_3 VGND VGND VPWR VPWR sky130_fd_sc_hd__decap_8
XFILLER_0_17_225 VGND VGND VPWR VPWR sky130_fd_sc_hd__fill_2
XFILLER_0_17_236 VGND VGND VPWR VPWR sky130_fd_sc_hd__decap_6
XFILLER_0_40_250 VGND VGND VPWR VPWR sky130_fd_sc_hd__fill_2
Xclkbuf_4_1_0_wr_clk clknet_0_wr_clk VGND VGND VPWR VPWR clknet_4_1_0_wr_clk sky130_fd_sc_hd__clkbuf_8
XFILLER_0_23_206 VPWR VGND VPWR VGND sky130_ef_sc_hd__decap_12
X_0982_ _0486_ VGND VGND VPWR VPWR _0146_ sky130_fd_sc_hd__clkbuf_1
XTAP_TAPCELL_ROW_14_164 VGND VPWR sky130_fd_sc_hd__tapvpwrvgnd_1
XFILLER_0_1_166 VGND VGND VPWR VPWR sky130_fd_sc_hd__fill_2
XTAP_TAPCELL_ROW_37_267 VGND VPWR sky130_fd_sc_hd__tapvpwrvgnd_1
XFILLER_0_9_255 VGND VGND VPWR VPWR sky130_fd_sc_hd__fill_1
XTAP_TAPCELL_ROW_20_189 VGND VPWR sky130_fd_sc_hd__tapvpwrvgnd_1
XTAP_TAPCELL_ROW_5_121 VGND VPWR sky130_fd_sc_hd__tapvpwrvgnd_1
X_1181_ clknet_4_2_0_wr_clk _0111_ VGND VGND VPWR VPWR mem\[4\]\[7\] sky130_fd_sc_hd__dfxtp_1
X_1250_ clknet_4_3_0_wr_clk _0180_ VGND VGND VPWR VPWR mem\[13\]\[4\] sky130_fd_sc_hd__dfxtp_1
XFILLER_0_40_85 VPWR VGND VPWR VGND sky130_ef_sc_hd__decap_12
X_0896_ _0439_ VGND VGND VPWR VPWR _0107_ sky130_fd_sc_hd__clkbuf_1
X_0965_ _0477_ VGND VGND VPWR VPWR _0138_ sky130_fd_sc_hd__clkbuf_1
XFILLER_0_4_85 VGND VGND VPWR VPWR sky130_fd_sc_hd__fill_2
XFILLER_0_10_253 VGND VGND VPWR VPWR sky130_fd_sc_hd__fill_1
XFILLER_0_28_139 VGND VGND VPWR VPWR sky130_fd_sc_hd__fill_1
X_0681_ net17 _0275_ _0313_ _0314_ VGND VGND VPWR VPWR _0052_ sky130_fd_sc_hd__a22o_1
XFILLER_0_10_77 VGND VGND VPWR VPWR sky130_fd_sc_hd__decap_6
X_0750_ mem\[15\]\[0\] _0256_ _0370_ _0377_ VGND VGND VPWR VPWR _0378_ sky130_fd_sc_hd__a211o_1
X_1233_ clknet_4_0_0_wr_clk _0163_ VGND VGND VPWR VPWR mem\[11\]\[3\] sky130_fd_sc_hd__dfxtp_1
XFILLER_0_35_96 VPWR VGND VPWR VGND sky130_ef_sc_hd__decap_12
XFILLER_0_35_85 VGND VGND VPWR VPWR sky130_fd_sc_hd__fill_2
X_1095_ _0546_ VGND VGND VPWR VPWR _0199_ sky130_fd_sc_hd__clkbuf_1
X_1164_ clknet_4_11_0_wr_clk _0094_ VGND VGND VPWR VPWR mem\[2\]\[6\] sky130_fd_sc_hd__dfxtp_1
X_0948_ mem\[7\]\[3\] _0394_ _0464_ VGND VGND VPWR VPWR _0468_ sky130_fd_sc_hd__mux2_1
XFILLER_0_42_153 VGND VGND VPWR VPWR sky130_fd_sc_hd__fill_1
XFILLER_0_2_261 VPWR VGND VPWR VGND sky130_ef_sc_hd__decap_12
X_0879_ mem\[3\]\[4\] _0396_ _0425_ VGND VGND VPWR VPWR _0430_ sky130_fd_sc_hd__mux2_1
XFILLER_0_0_209 VPWR VGND VPWR VGND sky130_ef_sc_hd__decap_12
X_0802_ _0383_ VGND VGND VPWR VPWR _0042_ sky130_fd_sc_hd__inv_2
X_0664_ mem\[9\]\[7\] _0297_ _0298_ mem\[5\]\[7\] VGND VGND VPWR VPWR _0299_ sky130_fd_sc_hd__a22o_1
X_0733_ mem\[1\]\[1\] _0286_ _0298_ mem\[5\]\[1\] VGND VGND VPWR VPWR _0362_ sky130_fd_sc_hd__a22o_1
XFILLER_0_24_197 VGND VGND VPWR VPWR sky130_fd_sc_hd__fill_1
X_1216_ clknet_4_5_0_wr_clk _0146_ VGND VGND VPWR VPWR mem\[9\]\[2\] sky130_fd_sc_hd__dfxtp_1
X_0595_ wr_ptr_gray_sync2\[3\] VGND VGND VPWR VPWR _0239_ sky130_fd_sc_hd__inv_2
X_1147_ clknet_4_7_0_wr_clk _0077_ VGND VGND VPWR VPWR mem\[0\]\[5\] sky130_fd_sc_hd__dfxtp_1
X_1078_ _0537_ VGND VGND VPWR VPWR _0191_ sky130_fd_sc_hd__clkbuf_1
XFILLER_0_1_86 VGND VGND VPWR VPWR sky130_fd_sc_hd__fill_2
XFILLER_0_30_189 VGND VGND VPWR VPWR sky130_fd_sc_hd__decap_6
XFILLER_0_21_123 VGND VGND VPWR VPWR sky130_fd_sc_hd__decap_8
X_1001_ _0496_ VGND VGND VPWR VPWR _0155_ sky130_fd_sc_hd__clkbuf_1
XFILLER_0_16_65 VGND VGND VPWR VPWR sky130_fd_sc_hd__decap_8
XFILLER_0_16_76 VGND VGND VPWR VPWR sky130_fd_sc_hd__decap_8
XFILLER_0_29_223 VGND VGND VPWR VPWR sky130_fd_sc_hd__fill_1
X_0716_ net14 _0275_ _0345_ _0346_ VGND VGND VPWR VPWR _0049_ sky130_fd_sc_hd__a22o_1
X_0578_ wr_ptr_gray\[2\] _0228_ _0226_ VGND VGND VPWR VPWR _0229_ sky130_fd_sc_hd__mux2_1
X_0647_ _0252_ _0253_ _0266_ VGND VGND VPWR VPWR _0282_ sky130_fd_sc_hd__nor3_4
XFILLER_0_32_3 VGND VGND VPWR VPWR sky130_fd_sc_hd__decap_6
XFILLER_0_7_150 VPWR VGND VPWR VGND sky130_ef_sc_hd__decap_12
Xoutput12 net12 VGND VGND VPWR VPWR rd_data[1] sky130_fd_sc_hd__buf_1
XFILLER_0_5_109 VGND VGND VPWR VPWR sky130_fd_sc_hd__decap_3
XFILLER_0_27_31 VGND VGND VPWR VPWR sky130_fd_sc_hd__fill_2
XFILLER_0_43_63 VGND VGND VPWR VPWR sky130_fd_sc_hd__fill_1
XFILLER_0_23_218 VGND VGND VPWR VPWR sky130_fd_sc_hd__decap_6
X_0981_ mem\[9\]\[2\] _0392_ _0483_ VGND VGND VPWR VPWR _0486_ sky130_fd_sc_hd__mux2_1
XTAP_TAPCELL_ROW_14_165 VGND VPWR sky130_fd_sc_hd__tapvpwrvgnd_1
XFILLER_0_38_85 VGND VGND VPWR VPWR sky130_fd_sc_hd__decap_8
XFILLER_0_38_63 VGND VGND VPWR VPWR sky130_fd_sc_hd__fill_2
XFILLER_0_1_189 VPWR VGND VPWR VGND sky130_ef_sc_hd__decap_12
XTAP_TAPCELL_ROW_37_268 VGND VPWR sky130_fd_sc_hd__tapvpwrvgnd_1
XTAP_TAPCELL_ROW_5_122 VGND VPWR sky130_fd_sc_hd__tapvpwrvgnd_1
XTAP_TAPCELL_ROW_28_224 VGND VPWR sky130_fd_sc_hd__tapvpwrvgnd_1
X_1180_ clknet_4_13_0_wr_clk _0110_ VGND VGND VPWR VPWR mem\[4\]\[6\] sky130_fd_sc_hd__dfxtp_1
XFILLER_0_46_118 VGND VGND VPWR VPWR sky130_fd_sc_hd__decap_4
XFILLER_0_6_237 VGND VGND VPWR VPWR sky130_fd_sc_hd__decap_8
X_0964_ mem\[8\]\[2\] _0392_ _0474_ VGND VGND VPWR VPWR _0477_ sky130_fd_sc_hd__mux2_1
XFILLER_0_40_97 VPWR VGND VPWR VGND sky130_ef_sc_hd__decap_12
X_0895_ mem\[4\]\[3\] _0394_ _0435_ VGND VGND VPWR VPWR _0439_ sky130_fd_sc_hd__mux2_1
XFILLER_0_4_64 VGND VGND VPWR VPWR sky130_fd_sc_hd__decap_4
X_0680_ mem\[0\]\[6\] _0303_ _0251_ VGND VGND VPWR VPWR _0314_ sky130_fd_sc_hd__o21a_1
X_1232_ clknet_4_4_0_wr_clk _0162_ VGND VGND VPWR VPWR mem\[11\]\[2\] sky130_fd_sc_hd__dfxtp_1
X_1094_ mem\[15\]\[7\] net9 _0538_ VGND VGND VPWR VPWR _0546_ sky130_fd_sc_hd__mux2_1
X_1163_ clknet_4_4_0_wr_clk _0093_ VGND VGND VPWR VPWR mem\[2\]\[5\] sky130_fd_sc_hd__dfxtp_1
X_0947_ _0467_ VGND VGND VPWR VPWR _0130_ sky130_fd_sc_hd__clkbuf_1
X_0878_ _0429_ VGND VGND VPWR VPWR _0099_ sky130_fd_sc_hd__clkbuf_1
XFILLER_0_2_273 VGND VGND VPWR VPWR sky130_fd_sc_hd__decap_4
Xclkload0 clknet_4_0_0_wr_clk VGND VGND VPWR VPWR clkload0/Y sky130_fd_sc_hd__clkinv_1
XFILLER_0_18_195 VGND VGND VPWR VPWR sky130_fd_sc_hd__fill_1
XTAP_TAPCELL_ROW_44_300 VGND VPWR sky130_fd_sc_hd__tapvpwrvgnd_1
X_0801_ _0383_ VGND VGND VPWR VPWR _0041_ sky130_fd_sc_hd__inv_2
XFILLER_0_21_55 VGND VGND VPWR VPWR sky130_fd_sc_hd__fill_1
X_0663_ _0252_ rd_ptr\[1\] _0259_ _0276_ VGND VGND VPWR VPWR _0298_ sky130_fd_sc_hd__and4bb_4
X_0594_ rd_ptr_gray\[1\] VGND VGND VPWR VPWR _0238_ sky130_fd_sc_hd__inv_2
X_0732_ mem\[14\]\[1\] _0291_ _0287_ mem\[2\]\[1\] VGND VGND VPWR VPWR _0361_ sky130_fd_sc_hd__a22o_1
XFILLER_0_46_85 VGND VGND VPWR VPWR sky130_fd_sc_hd__decap_8
XFILLER_0_46_41 VPWR VGND VPWR VGND sky130_ef_sc_hd__decap_12
X_1146_ clknet_4_7_0_wr_clk _0076_ VGND VGND VPWR VPWR mem\[0\]\[4\] sky130_fd_sc_hd__dfxtp_1
X_1215_ clknet_4_12_0_wr_clk _0145_ VGND VGND VPWR VPWR mem\[9\]\[1\] sky130_fd_sc_hd__dfxtp_1
X_1077_ mem\[14\]\[7\] net9 _0529_ VGND VGND VPWR VPWR _0537_ sky130_fd_sc_hd__mux2_1
XFILLER_0_30_113 VGND VGND VPWR VPWR sky130_fd_sc_hd__fill_1
X_1000_ mem\[10\]\[3\] net5 _0492_ VGND VGND VPWR VPWR _0496_ sky130_fd_sc_hd__mux2_1
X_0715_ mem\[0\]\[3\] _0303_ _0251_ VGND VGND VPWR VPWR _0346_ sky130_fd_sc_hd__o21a_1
XFILLER_0_12_113 VPWR VGND VPWR VGND sky130_ef_sc_hd__decap_12
X_0646_ mem\[11\]\[7\] _0278_ _0280_ mem\[4\]\[7\] VGND VGND VPWR VPWR _0281_ sky130_fd_sc_hd__a22o_1
X_0577_ _0204_ VGND VGND VPWR VPWR _0228_ sky130_fd_sc_hd__inv_2
X_1129_ clknet_1_1__leaf_rd_clk _0059_ _0033_ VGND VGND VPWR VPWR rd_ptr_gray\[1\]
+ sky130_fd_sc_hd__dfrtp_1
XFILLER_0_25_3 VGND VGND VPWR VPWR sky130_fd_sc_hd__fill_1
XFILLER_0_7_162 VGND VGND VPWR VPWR sky130_fd_sc_hd__decap_6
Xoutput13 net13 VGND VGND VPWR VPWR rd_data[2] sky130_fd_sc_hd__buf_1
XPHY_EDGE_ROW_19_Right_19 VGND VGND VPWR VPWR sky130_fd_sc_hd__decap_3
XFILLER_0_41_208 VPWR VGND VPWR VGND sky130_ef_sc_hd__decap_12
XPHY_EDGE_ROW_28_Right_28 VGND VGND VPWR VPWR sky130_fd_sc_hd__decap_3
XPHY_EDGE_ROW_37_Right_37 VGND VGND VPWR VPWR sky130_fd_sc_hd__decap_3
XPHY_EDGE_ROW_46_Right_46 VGND VGND VPWR VPWR sky130_fd_sc_hd__decap_3
XFILLER_0_40_230 VGND VGND VPWR VPWR sky130_fd_sc_hd__decap_8
X_0629_ _0258_ VGND VGND VPWR VPWR _0269_ sky130_fd_sc_hd__inv_2
X_0980_ _0485_ VGND VGND VPWR VPWR _0145_ sky130_fd_sc_hd__clkbuf_1
XFILLER_0_1_113 VGND VGND VPWR VPWR sky130_fd_sc_hd__decap_4
XFILLER_0_22_241 VGND VGND VPWR VPWR sky130_fd_sc_hd__decap_8
XPHY_EDGE_ROW_19_Left_66 VGND VGND VPWR VPWR sky130_fd_sc_hd__decap_3